*SPEF "ieee 1481-1999"
*DESIGN "async_fifo"
*DATE "11:11:11 Fri 11 11, 1111"
*VENDOR "OpenRCX"
*PROGRAM "Parallel Extraction"
*VERSION "1.0"
*DESIGN_FLOW "NAME_SCOPE LOCAL" "PIN_CAP NONE"
*DIVIDER /
*DELIMITER :
*BUS_DELIMITER []
*T_UNIT 1 NS
*C_UNIT 1 PF
*R_UNIT 1 OHM
*L_UNIT 1 HENRY

*NAME_MAP
*3 din[0]
*4 din[1]
*5 din[2]
*6 din[3]
*7 din[4]
*8 din[5]
*9 din[6]
*10 din[7]
*11 dout[0]
*12 dout[1]
*13 dout[2]
*14 dout[3]
*15 dout[4]
*16 dout[5]
*17 dout[6]
*18 dout[7]
*19 empty
*20 full
*21 rd_clk
*22 rd_en
*23 rst
*24 wr_clk
*25 wr_en
*26 net1
*27 net10
*28 net11
*29 net12
*30 net13
*31 net14
*32 net15
*33 net16
*34 net17
*35 net18
*36 net19
*37 net2
*38 net20
*39 net21
*40 net3
*41 net4
*42 net5
*43 net6
*44 net7
*45 net8
*46 net9
*47 u_mem\._0000_
*48 u_mem\._0001_
*49 u_mem\._0002_
*50 u_mem\._0003_
*51 u_mem\._0004_
*52 u_mem\._0005_
*53 u_mem\._0006_
*54 u_mem\._0007_
*55 u_mem\._0008_
*56 u_mem\._0009_
*57 u_mem\._0010_
*58 u_mem\._0011_
*59 u_mem\._0012_
*60 u_mem\._0013_
*61 u_mem\._0014_
*62 u_mem\._0015_
*63 u_mem\._0016_
*64 u_mem\._0017_
*65 u_mem\._0018_
*66 u_mem\._0019_
*67 u_mem\._0020_
*68 u_mem\._0021_
*69 u_mem\._0022_
*70 u_mem\._0023_
*71 u_mem\._0024_
*72 u_mem\._0025_
*73 u_mem\._0026_
*74 u_mem\._0027_
*75 u_mem\._0028_
*76 u_mem\._0029_
*77 u_mem\._0030_
*78 u_mem\._0031_
*79 u_mem\._0032_
*80 u_mem\._0033_
*81 u_mem\._0034_
*82 u_mem\._0035_
*83 u_mem\._0036_
*84 u_mem\._0037_
*85 u_mem\._0038_
*86 u_mem\._0039_
*87 u_mem\._0040_
*88 u_mem\._0041_
*89 u_mem\._0042_
*90 u_mem\._0043_
*91 u_mem\._0044_
*92 u_mem\._0045_
*93 u_mem\._0046_
*94 u_mem\._0047_
*95 u_mem\._0048_
*96 u_mem\._0049_
*97 u_mem\._0050_
*98 u_mem\._0051_
*99 u_mem\._0052_
*100 u_mem\._0053_
*101 u_mem\._0054_
*102 u_mem\._0055_
*103 u_mem\._0056_
*104 u_mem\._0057_
*105 u_mem\._0058_
*106 u_mem\._0059_
*107 u_mem\._0060_
*108 u_mem\._0061_
*109 u_mem\._0062_
*110 u_mem\._0063_
*111 u_mem\._0064_
*112 u_mem\._0065_
*113 u_mem\._0066_
*114 u_mem\._0067_
*115 u_mem\._0068_
*116 u_mem\._0069_
*117 u_mem\._0070_
*118 u_mem\._0071_
*119 u_mem\._0072_
*120 u_mem\._0073_
*121 u_mem\._0074_
*122 u_mem\._0075_
*123 u_mem\._0076_
*124 u_mem\._0077_
*125 u_mem\._0078_
*126 u_mem\._0079_
*127 u_mem\._0080_
*128 u_mem\._0081_
*129 u_mem\._0082_
*130 u_mem\._0083_
*131 u_mem\._0084_
*132 u_mem\._0085_
*133 u_mem\._0086_
*134 u_mem\._0087_
*135 u_mem\._0088_
*136 u_mem\._0089_
*137 u_mem\._0090_
*138 u_mem\._0091_
*139 u_mem\._0092_
*140 u_mem\._0093_
*141 u_mem\._0094_
*142 u_mem\._0095_
*143 u_mem\._0096_
*144 u_mem\._0097_
*145 u_mem\._0098_
*146 u_mem\._0099_
*147 u_mem\._0100_
*148 u_mem\._0101_
*149 u_mem\._0102_
*150 u_mem\._0103_
*151 u_mem\._0104_
*152 u_mem\._0105_
*153 u_mem\._0106_
*154 u_mem\._0107_
*155 u_mem\._0108_
*156 u_mem\._0109_
*157 u_mem\._0110_
*158 u_mem\._0111_
*159 u_mem\._0112_
*160 u_mem\._0113_
*161 u_mem\._0114_
*162 u_mem\._0115_
*163 u_mem\._0116_
*164 u_mem\._0117_
*165 u_mem\._0118_
*166 u_mem\._0119_
*167 u_mem\._0120_
*168 u_mem\._0121_
*169 u_mem\._0122_
*170 u_mem\._0123_
*171 u_mem\._0124_
*172 u_mem\._0125_
*173 u_mem\._0126_
*174 u_mem\._0127_
*175 u_mem\._0128_
*176 u_mem\._0129_
*177 u_mem\._0130_
*178 u_mem\._0131_
*179 u_mem\._0132_
*180 u_mem\._0133_
*181 u_mem\._0134_
*182 u_mem\._0135_
*183 u_mem\._0136_
*184 u_mem\._0137_
*185 u_mem\._0138_
*186 u_mem\._0139_
*187 u_mem\._0140_
*188 u_mem\._0141_
*189 u_mem\._0142_
*190 u_mem\._0143_
*191 u_mem\._0144_
*192 u_mem\._0145_
*193 u_mem\._0146_
*194 u_mem\._0147_
*195 u_mem\._0148_
*196 u_mem\._0149_
*197 u_mem\._0150_
*198 u_mem\._0151_
*199 u_mem\._0152_
*200 u_mem\._0153_
*201 u_mem\._0154_
*202 u_mem\._0155_
*203 u_mem\._0156_
*204 u_mem\._0157_
*205 u_mem\._0158_
*206 u_mem\._0159_
*207 u_mem\._0160_
*208 u_mem\._0161_
*209 u_mem\._0162_
*210 u_mem\._0163_
*211 u_mem\._0164_
*212 u_mem\._0165_
*213 u_mem\._0166_
*214 u_mem\._0167_
*215 u_mem\._0168_
*216 u_mem\._0169_
*217 u_mem\._0170_
*218 u_mem\._0171_
*219 u_mem\._0172_
*220 u_mem\._0173_
*221 u_mem\._0174_
*222 u_mem\._0175_
*223 u_mem\._0176_
*224 u_mem\._0177_
*225 u_mem\._0178_
*226 u_mem\._0179_
*227 u_mem\._0180_
*228 u_mem\._0181_
*229 u_mem\._0182_
*230 u_mem\._0183_
*231 u_mem\._0184_
*232 u_mem\._0185_
*233 u_mem\._0186_
*234 u_mem\._0187_
*235 u_mem\._0188_
*236 u_mem\._0189_
*237 u_mem\._0190_
*238 u_mem\._0191_
*239 u_mem\._0192_
*240 u_mem\._0193_
*241 u_mem\._0194_
*242 u_mem\._0195_
*243 u_mem\._0196_
*244 u_mem\._0197_
*245 u_mem\._0198_
*246 u_mem\._0199_
*247 u_mem\._0200_
*248 u_mem\._0201_
*249 u_mem\._0202_
*250 u_mem\._0203_
*251 u_mem\._0204_
*252 u_mem\._0205_
*253 u_mem\._0206_
*254 u_mem\._0207_
*255 u_mem\._0208_
*256 u_mem\._0209_
*257 u_mem\._0210_
*258 u_mem\._0211_
*259 u_mem\._0212_
*260 u_mem\._0213_
*261 u_mem\._0214_
*262 u_mem\._0215_
*263 u_mem\._0216_
*264 u_mem\._0217_
*265 u_mem\._0218_
*266 u_mem\._0219_
*267 u_mem\._0220_
*268 u_mem\._0221_
*269 u_mem\._0222_
*270 u_mem\._0223_
*271 u_mem\._0224_
*272 u_mem\._0225_
*273 u_mem\._0226_
*274 u_mem\._0227_
*275 u_mem\._0228_
*276 u_mem\._0229_
*277 u_mem\._0230_
*278 u_mem\._0231_
*279 u_mem\._0232_
*280 u_mem\._0233_
*281 u_mem\._0234_
*282 u_mem\._0235_
*283 u_mem\._0236_
*284 u_mem\._0237_
*285 u_mem\._0238_
*286 u_mem\._0239_
*287 u_mem\._0240_
*288 u_mem\._0241_
*289 u_mem\._0242_
*290 u_mem\._0243_
*291 u_mem\._0244_
*292 u_mem\._0245_
*293 u_mem\._0246_
*294 u_mem\._0247_
*295 u_mem\._0248_
*296 u_mem\._0249_
*297 u_mem\._0250_
*298 u_mem\._0251_
*299 u_mem\._0252_
*300 u_mem\._0253_
*301 u_mem\._0254_
*302 u_mem\._0255_
*303 u_mem\._0256_
*304 u_mem\._0257_
*305 u_mem\._0258_
*306 u_mem\._0259_
*307 u_mem\._0260_
*308 u_mem\._0261_
*309 u_mem\._0262_
*310 u_mem\._0263_
*311 u_mem\._0264_
*312 u_mem\._0265_
*313 u_mem\._0266_
*314 u_mem\._0267_
*315 u_mem\._0268_
*316 u_mem\._0269_
*317 u_mem\._0270_
*318 u_mem\._0271_
*319 u_mem\._0272_
*320 u_mem\._0273_
*321 u_mem\._0274_
*322 u_mem\._0275_
*323 u_mem\._0276_
*324 u_mem\._0277_
*325 u_mem\._0278_
*326 u_mem\._0279_
*327 u_mem\._0280_
*328 u_mem\._0281_
*329 u_mem\._0282_
*330 u_mem\._0283_
*331 u_mem\._0284_
*332 u_mem\._0285_
*333 u_mem\._0286_
*334 u_mem\._0287_
*335 u_mem\._0288_
*336 u_mem\._0289_
*337 u_mem\._0290_
*338 u_mem\._0291_
*339 u_mem\._0292_
*340 u_mem\._0293_
*341 u_mem\._0294_
*342 u_mem\._0295_
*343 u_mem\._0296_
*344 u_mem\._0297_
*345 u_mem\._0298_
*346 u_mem\._0299_
*347 u_mem\._0300_
*348 u_mem\._0301_
*349 u_mem\._0302_
*350 u_mem\._0303_
*351 u_mem\._0304_
*352 u_mem\._0305_
*353 u_mem\._0306_
*354 u_mem\._0307_
*355 u_mem\._0308_
*356 u_mem\._0309_
*357 u_mem\._0310_
*358 u_mem\._0311_
*359 u_mem\._0312_
*360 u_mem\._0313_
*361 u_mem\._0314_
*362 u_mem\._0315_
*363 u_mem\._0316_
*364 u_mem\._0317_
*365 u_mem\._0318_
*366 u_mem\._0319_
*367 u_mem\._0320_
*368 u_mem\._0321_
*369 u_mem\._0322_
*370 u_mem\._0323_
*371 u_mem\._0324_
*372 u_mem\._0325_
*373 u_mem\._0326_
*374 u_mem\._0327_
*375 u_mem\._0328_
*376 u_mem\._0329_
*377 u_mem\._0330_
*378 u_mem\._0331_
*379 u_mem\._0332_
*380 u_mem\._0333_
*381 u_mem\._0334_
*382 u_mem\._0335_
*383 u_mem\._0336_
*384 u_mem\._0337_
*385 u_mem\._0338_
*386 u_mem\._0339_
*387 u_mem\._0340_
*388 u_mem\._0341_
*389 u_mem\._0342_
*390 u_mem\._0343_
*391 u_mem\._0344_
*392 u_mem\._0345_
*393 u_mem\._0346_
*394 u_mem\._0347_
*395 u_mem\._0348_
*396 u_mem\._0349_
*397 u_mem\._0350_
*398 u_mem\._0351_
*399 u_mem\._0352_
*400 u_mem\._0353_
*401 u_mem\._0354_
*402 u_mem\._0355_
*403 u_mem\._0356_
*404 u_mem\._0357_
*405 u_mem\._0358_
*406 u_mem\._0359_
*407 u_mem\._0360_
*408 u_mem\._0361_
*409 u_mem\._0362_
*410 u_mem\._0363_
*411 u_mem\._0364_
*412 u_mem\._0365_
*413 u_mem\._0366_
*414 u_mem\._0367_
*415 u_mem\._0368_
*416 u_mem\._0369_
*417 u_mem\._0370_
*418 u_mem\._0371_
*419 u_mem\._0372_
*420 u_mem\._0373_
*421 u_mem\._0374_
*422 u_mem\._0375_
*423 u_mem\._0376_
*424 u_mem\._0377_
*425 u_mem\._0378_
*426 u_mem\._0379_
*427 u_mem\._0380_
*428 u_mem\._0381_
*429 u_mem\._0382_
*430 u_mem\._0383_
*431 u_mem\._0384_
*432 u_mem\._0385_
*433 u_mem\._0386_
*434 u_mem\._0387_
*435 u_mem\._0388_
*436 u_mem\._0389_
*437 u_mem\._0390_
*438 u_mem\._0391_
*439 u_mem\._0392_
*440 u_mem\._0393_
*441 u_mem\._0394_
*442 u_mem\._0395_
*443 u_mem\._0396_
*444 u_mem\._0397_
*445 u_mem\._0398_
*446 u_mem\._0399_
*447 u_mem\._0400_
*448 u_mem\._0401_
*449 u_mem\._0402_
*450 u_mem\._0403_
*451 u_mem\._0404_
*452 u_mem\._0405_
*453 u_mem\._0406_
*454 u_mem\._0407_
*455 u_mem\._0408_
*456 u_mem\._0409_
*457 u_mem\._0410_
*458 u_mem\._0411_
*459 u_mem\._0412_
*460 u_mem\._0413_
*461 u_mem\._0414_
*462 u_mem\._0415_
*463 u_mem\._0416_
*464 u_mem\._0417_
*465 u_mem\._0418_
*466 u_mem\._0419_
*467 u_mem\._0420_
*468 u_mem\._0421_
*469 u_mem\._0422_
*470 u_mem\._0423_
*471 u_mem\._0424_
*472 u_mem\._0425_
*473 u_mem\._0426_
*474 u_mem\._0427_
*475 u_mem\._0428_
*476 u_mem\._0429_
*477 u_mem\._0430_
*478 u_mem\._0431_
*479 u_mem\._0432_
*480 u_mem\._0433_
*481 u_mem\._0434_
*482 u_mem\._0435_
*483 u_mem\._0436_
*484 u_mem\._0437_
*485 u_mem\._0438_
*486 u_mem\._0439_
*487 u_mem\._0440_
*488 u_mem\._0441_
*489 u_mem\._0442_
*490 u_mem\._0443_
*491 u_mem\._0444_
*492 u_mem\._0445_
*493 u_mem\._0446_
*494 u_mem\._0447_
*495 u_mem\._0448_
*496 u_mem\._0449_
*497 u_mem\._0450_
*498 u_mem\._0451_
*499 u_mem\._0452_
*500 u_mem\._0453_
*501 u_mem\._0454_
*502 u_mem\._0455_
*503 u_mem\._0456_
*504 u_mem\._0457_
*505 u_mem\._0458_
*506 u_mem\._0459_
*507 u_mem\._0460_
*508 u_mem\._0461_
*509 u_mem\._0462_
*510 u_mem\._0463_
*511 u_mem\._0464_
*512 u_mem\._0465_
*513 u_mem\._0466_
*514 u_mem\._0467_
*515 u_mem\._0468_
*516 u_mem\._0469_
*517 u_mem\._0470_
*518 u_mem\._0471_
*519 u_mem\._0472_
*520 u_mem\._0473_
*521 u_mem\._0474_
*522 u_mem\._0475_
*523 u_mem\._0476_
*524 u_mem\._0477_
*525 u_mem\._0478_
*526 u_mem\._0479_
*527 u_mem\._0480_
*528 u_mem\._0481_
*529 u_mem\._0482_
*530 u_mem\._0483_
*531 u_mem\._0484_
*532 u_mem\._0485_
*533 u_mem\.dout\[0\]
*534 u_mem\.dout\[1\]
*535 u_mem\.dout\[2\]
*536 u_mem\.dout\[3\]
*537 u_mem\.dout\[4\]
*538 u_mem\.dout\[5\]
*539 u_mem\.dout\[6\]
*540 u_mem\.dout\[7\]
*541 u_mem\.mem\[0\]\[0\]
*542 u_mem\.mem\[0\]\[1\]
*543 u_mem\.mem\[0\]\[2\]
*544 u_mem\.mem\[0\]\[3\]
*545 u_mem\.mem\[0\]\[4\]
*546 u_mem\.mem\[0\]\[5\]
*547 u_mem\.mem\[0\]\[6\]
*548 u_mem\.mem\[0\]\[7\]
*549 u_mem\.mem\[10\]\[0\]
*550 u_mem\.mem\[10\]\[1\]
*551 u_mem\.mem\[10\]\[2\]
*552 u_mem\.mem\[10\]\[3\]
*553 u_mem\.mem\[10\]\[4\]
*554 u_mem\.mem\[10\]\[5\]
*555 u_mem\.mem\[10\]\[6\]
*556 u_mem\.mem\[10\]\[7\]
*557 u_mem\.mem\[11\]\[0\]
*558 u_mem\.mem\[11\]\[1\]
*559 u_mem\.mem\[11\]\[2\]
*560 u_mem\.mem\[11\]\[3\]
*561 u_mem\.mem\[11\]\[4\]
*562 u_mem\.mem\[11\]\[5\]
*563 u_mem\.mem\[11\]\[6\]
*564 u_mem\.mem\[11\]\[7\]
*565 u_mem\.mem\[12\]\[0\]
*566 u_mem\.mem\[12\]\[1\]
*567 u_mem\.mem\[12\]\[2\]
*568 u_mem\.mem\[12\]\[3\]
*569 u_mem\.mem\[12\]\[4\]
*570 u_mem\.mem\[12\]\[5\]
*571 u_mem\.mem\[12\]\[6\]
*572 u_mem\.mem\[12\]\[7\]
*573 u_mem\.mem\[13\]\[0\]
*574 u_mem\.mem\[13\]\[1\]
*575 u_mem\.mem\[13\]\[2\]
*576 u_mem\.mem\[13\]\[3\]
*577 u_mem\.mem\[13\]\[4\]
*578 u_mem\.mem\[13\]\[5\]
*579 u_mem\.mem\[13\]\[6\]
*580 u_mem\.mem\[13\]\[7\]
*581 u_mem\.mem\[14\]\[0\]
*582 u_mem\.mem\[14\]\[1\]
*583 u_mem\.mem\[14\]\[2\]
*584 u_mem\.mem\[14\]\[3\]
*585 u_mem\.mem\[14\]\[4\]
*586 u_mem\.mem\[14\]\[5\]
*587 u_mem\.mem\[14\]\[6\]
*588 u_mem\.mem\[14\]\[7\]
*589 u_mem\.mem\[15\]\[0\]
*590 u_mem\.mem\[15\]\[1\]
*591 u_mem\.mem\[15\]\[2\]
*592 u_mem\.mem\[15\]\[3\]
*593 u_mem\.mem\[15\]\[4\]
*594 u_mem\.mem\[15\]\[5\]
*595 u_mem\.mem\[15\]\[6\]
*596 u_mem\.mem\[15\]\[7\]
*597 u_mem\.mem\[1\]\[0\]
*598 u_mem\.mem\[1\]\[1\]
*599 u_mem\.mem\[1\]\[2\]
*600 u_mem\.mem\[1\]\[3\]
*601 u_mem\.mem\[1\]\[4\]
*602 u_mem\.mem\[1\]\[5\]
*603 u_mem\.mem\[1\]\[6\]
*604 u_mem\.mem\[1\]\[7\]
*605 u_mem\.mem\[2\]\[0\]
*606 u_mem\.mem\[2\]\[1\]
*607 u_mem\.mem\[2\]\[2\]
*608 u_mem\.mem\[2\]\[3\]
*609 u_mem\.mem\[2\]\[4\]
*610 u_mem\.mem\[2\]\[5\]
*611 u_mem\.mem\[2\]\[6\]
*612 u_mem\.mem\[2\]\[7\]
*613 u_mem\.mem\[3\]\[0\]
*614 u_mem\.mem\[3\]\[1\]
*615 u_mem\.mem\[3\]\[2\]
*616 u_mem\.mem\[3\]\[3\]
*617 u_mem\.mem\[3\]\[4\]
*618 u_mem\.mem\[3\]\[5\]
*619 u_mem\.mem\[3\]\[6\]
*620 u_mem\.mem\[3\]\[7\]
*621 u_mem\.mem\[4\]\[0\]
*622 u_mem\.mem\[4\]\[1\]
*623 u_mem\.mem\[4\]\[2\]
*624 u_mem\.mem\[4\]\[3\]
*625 u_mem\.mem\[4\]\[4\]
*626 u_mem\.mem\[4\]\[5\]
*627 u_mem\.mem\[4\]\[6\]
*628 u_mem\.mem\[4\]\[7\]
*629 u_mem\.mem\[5\]\[0\]
*630 u_mem\.mem\[5\]\[1\]
*631 u_mem\.mem\[5\]\[2\]
*632 u_mem\.mem\[5\]\[3\]
*633 u_mem\.mem\[5\]\[4\]
*634 u_mem\.mem\[5\]\[5\]
*635 u_mem\.mem\[5\]\[6\]
*636 u_mem\.mem\[5\]\[7\]
*637 u_mem\.mem\[6\]\[0\]
*638 u_mem\.mem\[6\]\[1\]
*639 u_mem\.mem\[6\]\[2\]
*640 u_mem\.mem\[6\]\[3\]
*641 u_mem\.mem\[6\]\[4\]
*642 u_mem\.mem\[6\]\[5\]
*643 u_mem\.mem\[6\]\[6\]
*644 u_mem\.mem\[6\]\[7\]
*645 u_mem\.mem\[7\]\[0\]
*646 u_mem\.mem\[7\]\[1\]
*647 u_mem\.mem\[7\]\[2\]
*648 u_mem\.mem\[7\]\[3\]
*649 u_mem\.mem\[7\]\[4\]
*650 u_mem\.mem\[7\]\[5\]
*651 u_mem\.mem\[7\]\[6\]
*652 u_mem\.mem\[7\]\[7\]
*653 u_mem\.mem\[8\]\[0\]
*654 u_mem\.mem\[8\]\[1\]
*655 u_mem\.mem\[8\]\[2\]
*656 u_mem\.mem\[8\]\[3\]
*657 u_mem\.mem\[8\]\[4\]
*658 u_mem\.mem\[8\]\[5\]
*659 u_mem\.mem\[8\]\[6\]
*660 u_mem\.mem\[8\]\[7\]
*661 u_mem\.mem\[9\]\[0\]
*662 u_mem\.mem\[9\]\[1\]
*663 u_mem\.mem\[9\]\[2\]
*664 u_mem\.mem\[9\]\[3\]
*665 u_mem\.mem\[9\]\[4\]
*666 u_mem\.mem\[9\]\[5\]
*667 u_mem\.mem\[9\]\[6\]
*668 u_mem\.mem\[9\]\[7\]
*669 u_mem\.rd_addr\[0\]
*670 u_mem\.rd_addr\[1\]
*671 u_mem\.rd_addr\[2\]
*672 u_mem\.rd_addr\[3\]
*673 u_mem\.wr_addr\[0\]
*674 u_mem\.wr_addr\[1\]
*675 u_mem\.wr_addr\[2\]
*676 u_mem\.wr_addr\[3\]
*677 u_read\._00_
*678 u_read\._01_
*679 u_read\._02_
*680 u_read\._03_
*681 u_read\._04_
*682 u_read\._05_
*683 u_read\._06_
*684 u_read\._07_
*685 u_read\._08_
*686 u_read\._09_
*687 u_read\._10_
*688 u_read\._11_
*689 u_read\._12_
*690 u_read\._13_
*691 u_read\._14_
*692 u_read\._15_
*693 u_read\._16_
*694 u_read\._17_
*695 u_read\._18_
*696 u_read\._19_
*697 u_read\._20_
*698 u_read\._21_
*699 u_read\._22_
*700 u_read\._23_
*701 u_read\._24_
*702 u_read\._25_
*703 u_read\._26_
*704 u_read\._27_
*705 u_read\._28_
*706 u_read\._29_
*707 u_read\._30_
*708 u_read\._31_
*709 u_read\._32_
*710 u_read\._33_
*711 u_read\._34_
*712 u_read\._35_
*713 u_read\._36_
*714 u_read\._37_
*715 u_read\._38_
*716 u_read\._39_
*717 u_read\._40_
*718 u_read\._41_
*719 u_read\._42_
*720 u_read\.rd_ptr_bin\[4\]
*721 u_read\.rd_ptr_gray\[0\]
*722 u_read\.rd_ptr_gray\[1\]
*723 u_read\.rd_ptr_gray\[2\]
*724 u_read\.rd_ptr_gray\[3\]
*725 u_read\.rd_ptr_gray\[4\]
*726 u_read\.wr_gray_sync2\[0\]
*727 u_read\.wr_gray_sync2\[1\]
*728 u_read\.wr_gray_sync2\[2\]
*729 u_read\.wr_gray_sync2\[3\]
*730 u_read\.wr_gray_sync2\[4\]
*731 u_sync_rd2wr\._00_
*732 u_sync_rd2wr\._01_
*733 u_sync_rd2wr\._02_
*734 u_sync_rd2wr\._03_
*735 u_sync_rd2wr\._04_
*736 u_sync_rd2wr\._05_
*737 u_sync_rd2wr\._06_
*738 u_sync_rd2wr\._07_
*739 u_sync_rd2wr\._08_
*740 u_sync_rd2wr\._09_
*741 u_sync_rd2wr\._10_
*742 u_sync_rd2wr\._11_
*743 u_sync_rd2wr\._12_
*744 u_sync_rd2wr\._13_
*745 u_sync_rd2wr\._14_
*746 u_sync_rd2wr\._15_
*747 u_sync_rd2wr\._16_
*748 u_sync_rd2wr\._17_
*749 u_sync_rd2wr\._18_
*750 u_sync_rd2wr\._19_
*751 u_sync_rd2wr\.gray_sync1\[0\]
*752 u_sync_rd2wr\.gray_sync1\[1\]
*753 u_sync_rd2wr\.gray_sync1\[2\]
*754 u_sync_rd2wr\.gray_sync1\[3\]
*755 u_sync_rd2wr\.gray_sync1\[4\]
*756 u_sync_rd2wr\.gray_sync2\[0\]
*757 u_sync_rd2wr\.gray_sync2\[1\]
*758 u_sync_rd2wr\.gray_sync2\[2\]
*759 u_sync_rd2wr\.gray_sync2\[3\]
*760 u_sync_rd2wr\.gray_sync2\[4\]
*761 u_sync_wr2rd\._00_
*762 u_sync_wr2rd\._01_
*763 u_sync_wr2rd\._02_
*764 u_sync_wr2rd\._03_
*765 u_sync_wr2rd\._04_
*766 u_sync_wr2rd\._05_
*767 u_sync_wr2rd\._06_
*768 u_sync_wr2rd\._07_
*769 u_sync_wr2rd\._08_
*770 u_sync_wr2rd\._09_
*771 u_sync_wr2rd\._10_
*772 u_sync_wr2rd\._11_
*773 u_sync_wr2rd\._12_
*774 u_sync_wr2rd\._13_
*775 u_sync_wr2rd\._14_
*776 u_sync_wr2rd\._15_
*777 u_sync_wr2rd\._16_
*778 u_sync_wr2rd\._17_
*779 u_sync_wr2rd\._18_
*780 u_sync_wr2rd\._19_
*781 u_sync_wr2rd\.gray_in\[0\]
*782 u_sync_wr2rd\.gray_in\[1\]
*783 u_sync_wr2rd\.gray_in\[2\]
*784 u_sync_wr2rd\.gray_in\[3\]
*785 u_sync_wr2rd\.gray_in\[4\]
*786 u_sync_wr2rd\.gray_sync1\[0\]
*787 u_sync_wr2rd\.gray_sync1\[1\]
*788 u_sync_wr2rd\.gray_sync1\[2\]
*789 u_sync_wr2rd\.gray_sync1\[3\]
*790 u_sync_wr2rd\.gray_sync1\[4\]
*791 u_write\._00_
*792 u_write\._01_
*793 u_write\._02_
*794 u_write\._03_
*795 u_write\._04_
*796 u_write\._05_
*797 u_write\._06_
*798 u_write\._07_
*799 u_write\._08_
*800 u_write\._09_
*801 u_write\._10_
*802 u_write\._11_
*803 u_write\._12_
*804 u_write\._13_
*805 u_write\._14_
*806 u_write\._15_
*807 u_write\._16_
*808 u_write\._17_
*809 u_write\._18_
*810 u_write\._19_
*811 u_write\._20_
*812 u_write\._21_
*813 u_write\._22_
*814 u_write\._23_
*815 u_write\._24_
*816 u_write\._25_
*817 u_write\._26_
*818 u_write\._27_
*819 u_write\._28_
*820 u_write\._29_
*821 u_write\._30_
*822 u_write\._31_
*823 u_write\._32_
*824 u_write\._33_
*825 u_write\._34_
*826 u_write\._35_
*827 u_write\._36_
*828 u_write\._37_
*829 u_write\._38_
*830 u_write\._39_
*831 u_write\._40_
*832 u_write\.wr_ptr_bin\[4\]
*833 FILLER_0_0_109
*834 FILLER_0_0_113
*835 FILLER_0_0_125
*836 FILLER_0_0_133
*837 FILLER_0_0_139
*838 FILLER_0_0_141
*839 FILLER_0_0_153
*840 FILLER_0_0_165
*841 FILLER_0_0_169
*842 FILLER_0_0_177
*843 FILLER_0_0_189
*844 FILLER_0_0_19
*845 FILLER_0_0_195
*846 FILLER_0_0_197
*847 FILLER_0_0_209
*848 FILLER_0_0_221
*849 FILLER_0_0_225
*850 FILLER_0_0_237
*851 FILLER_0_0_249
*852 FILLER_0_0_253
*853 FILLER_0_0_265
*854 FILLER_0_0_269
*855 FILLER_0_0_27
*856 FILLER_0_0_29
*857 FILLER_0_0_41
*858 FILLER_0_0_53
*859 FILLER_0_0_57
*860 FILLER_0_0_69
*861 FILLER_0_0_7
*862 FILLER_0_0_81
*863 FILLER_0_0_85
*864 FILLER_0_0_97
*865 FILLER_0_10_109
*866 FILLER_0_10_11
*867 FILLER_0_10_119
*868 FILLER_0_10_127
*869 FILLER_0_10_141
*870 FILLER_0_10_153
*871 FILLER_0_10_175
*872 FILLER_0_10_181
*873 FILLER_0_10_187
*874 FILLER_0_10_192
*875 FILLER_0_10_197
*876 FILLER_0_10_215
*877 FILLER_0_10_22
*878 FILLER_0_10_227
*879 FILLER_0_10_239
*880 FILLER_0_10_251
*881 FILLER_0_10_253
*882 FILLER_0_10_265
*883 FILLER_0_10_269
*884 FILLER_0_10_29
*885 FILLER_0_10_3
*886 FILLER_0_10_41
*887 FILLER_0_10_53
*888 FILLER_0_10_64
*889 FILLER_0_10_74
*890 FILLER_0_10_80
*891 FILLER_0_10_85
*892 FILLER_0_10_97
*893 FILLER_0_11_105
*894 FILLER_0_11_111
*895 FILLER_0_11_113
*896 FILLER_0_11_125
*897 FILLER_0_11_137
*898 FILLER_0_11_149
*899 FILLER_0_11_15
*900 FILLER_0_11_161
*901 FILLER_0_11_167
*902 FILLER_0_11_169
*903 FILLER_0_11_175
*904 FILLER_0_11_180
*905 FILLER_0_11_223
*906 FILLER_0_11_225
*907 FILLER_0_11_238
*908 FILLER_0_11_26
*909 FILLER_0_11_262
*910 FILLER_0_11_266
*911 FILLER_0_11_3
*912 FILLER_0_11_36
*913 FILLER_0_11_48
*914 FILLER_0_11_52
*915 FILLER_0_11_73
*916 FILLER_0_12_106
*917 FILLER_0_12_136
*918 FILLER_0_12_148
*919 FILLER_0_12_156
*920 FILLER_0_12_166
*921 FILLER_0_12_172
*922 FILLER_0_12_181
*923 FILLER_0_12_187
*924 FILLER_0_12_197
*925 FILLER_0_12_216
*926 FILLER_0_12_220
*927 FILLER_0_12_23
*928 FILLER_0_12_232
*929 FILLER_0_12_250
*930 FILLER_0_12_253
*931 FILLER_0_12_265
*932 FILLER_0_12_269
*933 FILLER_0_12_3
*934 FILLER_0_12_45
*935 FILLER_0_12_85
*936 FILLER_0_13_107
*937 FILLER_0_13_111
*938 FILLER_0_13_113
*939 FILLER_0_13_120
*940 FILLER_0_13_131
*941 FILLER_0_13_154
*942 FILLER_0_13_167
*943 FILLER_0_13_172
*944 FILLER_0_13_181
*945 FILLER_0_13_193
*946 FILLER_0_13_202
*947 FILLER_0_13_222
*948 FILLER_0_13_234
*949 FILLER_0_13_256
*950 FILLER_0_13_268
*951 FILLER_0_13_54
*952 FILLER_0_14_106
*953 FILLER_0_14_11
*954 FILLER_0_14_15
*955 FILLER_0_14_150
*956 FILLER_0_14_177
*957 FILLER_0_14_201
*958 FILLER_0_14_251
*959 FILLER_0_14_253
*960 FILLER_0_14_265
*961 FILLER_0_14_269
*962 FILLER_0_14_3
*963 FILLER_0_14_53
*964 FILLER_0_14_65
*965 FILLER_0_14_80
*966 FILLER_0_14_85
*967 FILLER_0_14_89
*968 FILLER_0_15_105
*969 FILLER_0_15_11
*970 FILLER_0_15_113
*971 FILLER_0_15_140
*972 FILLER_0_15_146
*973 FILLER_0_15_150
*974 FILLER_0_15_172
*975 FILLER_0_15_22
*976 FILLER_0_15_222
*977 FILLER_0_15_241
*978 FILLER_0_15_253
*979 FILLER_0_15_262
*980 FILLER_0_15_27
*981 FILLER_0_15_3
*982 FILLER_0_15_39
*983 FILLER_0_15_51
*984 FILLER_0_15_55
*985 FILLER_0_15_57
*986 FILLER_0_15_69
*987 FILLER_0_15_81
*988 FILLER_0_15_93
*989 FILLER_0_16_111
*990 FILLER_0_16_122
*991 FILLER_0_16_130
*992 FILLER_0_16_141
*993 FILLER_0_16_153
*994 FILLER_0_16_168
*995 FILLER_0_16_190
*996 FILLER_0_16_205
*997 FILLER_0_16_23
*998 FILLER_0_16_231
*999 FILLER_0_16_243
*1000 FILLER_0_16_251
*1001 FILLER_0_16_253
*1002 FILLER_0_16_265
*1003 FILLER_0_16_27
*1004 FILLER_0_16_29
*1005 FILLER_0_16_3
*1006 FILLER_0_16_41
*1007 FILLER_0_16_59
*1008 FILLER_0_16_66
*1009 FILLER_0_16_78
*1010 FILLER_0_16_82
*1011 FILLER_0_16_85
*1012 FILLER_0_16_99
*1013 FILLER_0_17_102
*1014 FILLER_0_17_111
*1015 FILLER_0_17_113
*1016 FILLER_0_17_125
*1017 FILLER_0_17_129
*1018 FILLER_0_17_155
*1019 FILLER_0_17_167
*1020 FILLER_0_17_169
*1021 FILLER_0_17_181
*1022 FILLER_0_17_193
*1023 FILLER_0_17_205
*1024 FILLER_0_17_222
*1025 FILLER_0_17_225
*1026 FILLER_0_17_237
*1027 FILLER_0_17_249
*1028 FILLER_0_17_261
*1029 FILLER_0_17_269
*1030 FILLER_0_17_3
*1031 FILLER_0_17_32
*1032 FILLER_0_17_36
*1033 FILLER_0_17_66
*1034 FILLER_0_18_106
*1035 FILLER_0_18_118
*1036 FILLER_0_18_122
*1037 FILLER_0_18_130
*1038 FILLER_0_18_136
*1039 FILLER_0_18_141
*1040 FILLER_0_18_153
*1041 FILLER_0_18_165
*1042 FILLER_0_18_171
*1043 FILLER_0_18_177
*1044 FILLER_0_18_189
*1045 FILLER_0_18_195
*1046 FILLER_0_18_197
*1047 FILLER_0_18_205
*1048 FILLER_0_18_215
*1049 FILLER_0_18_22
*1050 FILLER_0_18_223
*1051 FILLER_0_18_235
*1052 FILLER_0_18_247
*1053 FILLER_0_18_251
*1054 FILLER_0_18_253
*1055 FILLER_0_18_265
*1056 FILLER_0_18_269
*1057 FILLER_0_18_29
*1058 FILLER_0_18_3
*1059 FILLER_0_18_41
*1060 FILLER_0_18_66
*1061 FILLER_0_18_77
*1062 FILLER_0_18_83
*1063 FILLER_0_18_9
*1064 FILLER_0_18_94
*1065 FILLER_0_19_100
*1066 FILLER_0_19_113
*1067 FILLER_0_19_13
*1068 FILLER_0_19_132
*1069 FILLER_0_19_138
*1070 FILLER_0_19_148
*1071 FILLER_0_19_160
*1072 FILLER_0_19_166
*1073 FILLER_0_19_185
*1074 FILLER_0_19_216
*1075 FILLER_0_19_220
*1076 FILLER_0_19_225
*1077 FILLER_0_19_23
*1078 FILLER_0_19_242
*1079 FILLER_0_19_254
*1080 FILLER_0_19_266
*1081 FILLER_0_19_35
*1082 FILLER_0_19_50
*1083 FILLER_0_19_57
*1084 FILLER_0_19_61
*1085 FILLER_0_19_7
*1086 FILLER_0_19_78
*1087 FILLER_0_19_88
*1088 FILLER_0_1_104
*1089 FILLER_0_1_110
*1090 FILLER_0_1_129
*1091 FILLER_0_1_149
*1092 FILLER_0_1_15
*1093 FILLER_0_1_167
*1094 FILLER_0_1_169
*1095 FILLER_0_1_175
*1096 FILLER_0_1_201
*1097 FILLER_0_1_213
*1098 FILLER_0_1_221
*1099 FILLER_0_1_225
*1100 FILLER_0_1_237
*1101 FILLER_0_1_249
*1102 FILLER_0_1_261
*1103 FILLER_0_1_27
*1104 FILLER_0_1_3
*1105 FILLER_0_1_39
*1106 FILLER_0_1_51
*1107 FILLER_0_1_55
*1108 FILLER_0_1_57
*1109 FILLER_0_1_69
*1110 FILLER_0_1_75
*1111 FILLER_0_1_92
*1112 FILLER_0_20_114
*1113 FILLER_0_20_24
*1114 FILLER_0_20_250
*1115 FILLER_0_20_256
*1116 FILLER_0_20_262
*1117 FILLER_0_20_29
*1118 FILLER_0_20_3
*1119 FILLER_0_20_66
*1120 FILLER_0_20_7
*1121 FILLER_0_21_100
*1122 FILLER_0_21_110
*1123 FILLER_0_21_130
*1124 FILLER_0_21_148
*1125 FILLER_0_21_160
*1126 FILLER_0_21_164
*1127 FILLER_0_21_187
*1128 FILLER_0_21_199
*1129 FILLER_0_21_221
*1130 FILLER_0_21_239
*1131 FILLER_0_21_256
*1132 FILLER_0_21_264
*1133 FILLER_0_21_3
*1134 FILLER_0_21_33
*1135 FILLER_0_21_53
*1136 FILLER_0_21_57
*1137 FILLER_0_21_65
*1138 FILLER_0_21_69
*1139 FILLER_0_21_96
*1140 FILLER_0_22_100
*1141 FILLER_0_22_116
*1142 FILLER_0_22_128
*1143 FILLER_0_22_150
*1144 FILLER_0_22_157
*1145 FILLER_0_22_161
*1146 FILLER_0_22_178
*1147 FILLER_0_22_213
*1148 FILLER_0_22_225
*1149 FILLER_0_22_23
*1150 FILLER_0_22_230
*1151 FILLER_0_22_242
*1152 FILLER_0_22_250
*1153 FILLER_0_22_253
*1154 FILLER_0_22_265
*1155 FILLER_0_22_269
*1156 FILLER_0_22_27
*1157 FILLER_0_22_29
*1158 FILLER_0_22_3
*1159 FILLER_0_22_37
*1160 FILLER_0_22_49
*1161 FILLER_0_22_61
*1162 FILLER_0_22_78
*1163 FILLER_0_22_88
*1164 FILLER_0_23_106
*1165 FILLER_0_23_11
*1166 FILLER_0_23_113
*1167 FILLER_0_23_131
*1168 FILLER_0_23_150
*1169 FILLER_0_23_22
*1170 FILLER_0_23_222
*1171 FILLER_0_23_225
*1172 FILLER_0_23_237
*1173 FILLER_0_23_249
*1174 FILLER_0_23_261
*1175 FILLER_0_23_269
*1176 FILLER_0_23_3
*1177 FILLER_0_23_34
*1178 FILLER_0_23_46
*1179 FILLER_0_23_54
*1180 FILLER_0_23_82
*1181 FILLER_0_23_94
*1182 FILLER_0_24_107
*1183 FILLER_0_24_114
*1184 FILLER_0_24_135
*1185 FILLER_0_24_151
*1186 FILLER_0_24_192
*1187 FILLER_0_24_197
*1188 FILLER_0_24_201
*1189 FILLER_0_24_211
*1190 FILLER_0_24_23
*1191 FILLER_0_24_243
*1192 FILLER_0_24_251
*1193 FILLER_0_24_253
*1194 FILLER_0_24_265
*1195 FILLER_0_24_269
*1196 FILLER_0_24_27
*1197 FILLER_0_24_29
*1198 FILLER_0_24_3
*1199 FILLER_0_24_46
*1200 FILLER_0_24_76
*1201 FILLER_0_24_83
*1202 FILLER_0_25_110
*1203 FILLER_0_25_119
*1204 FILLER_0_25_135
*1205 FILLER_0_25_147
*1206 FILLER_0_25_159
*1207 FILLER_0_25_167
*1208 FILLER_0_25_169
*1209 FILLER_0_25_173
*1210 FILLER_0_25_181
*1211 FILLER_0_25_193
*1212 FILLER_0_25_205
*1213 FILLER_0_25_213
*1214 FILLER_0_25_241
*1215 FILLER_0_25_264
*1216 FILLER_0_25_3
*1217 FILLER_0_25_54
*1218 FILLER_0_25_57
*1219 FILLER_0_25_88
*1220 FILLER_0_26_109
*1221 FILLER_0_26_115
*1222 FILLER_0_26_127
*1223 FILLER_0_26_139
*1224 FILLER_0_26_148
*1225 FILLER_0_26_156
*1226 FILLER_0_26_175
*1227 FILLER_0_26_187
*1228 FILLER_0_26_195
*1229 FILLER_0_26_213
*1230 FILLER_0_26_219
*1231 FILLER_0_26_241
*1232 FILLER_0_26_249
*1233 FILLER_0_26_253
*1234 FILLER_0_26_265
*1235 FILLER_0_26_29
*1236 FILLER_0_26_53
*1237 FILLER_0_26_61
*1238 FILLER_0_26_7
*1239 FILLER_0_26_72
*1240 FILLER_0_26_81
*1241 FILLER_0_26_85
*1242 FILLER_0_26_97
*1243 FILLER_0_27_103
*1244 FILLER_0_27_11
*1245 FILLER_0_27_111
*1246 FILLER_0_27_113
*1247 FILLER_0_27_125
*1248 FILLER_0_27_150
*1249 FILLER_0_27_158
*1250 FILLER_0_27_16
*1251 FILLER_0_27_166
*1252 FILLER_0_27_178
*1253 FILLER_0_27_184
*1254 FILLER_0_27_189
*1255 FILLER_0_27_210
*1256 FILLER_0_27_221
*1257 FILLER_0_27_234
*1258 FILLER_0_27_246
*1259 FILLER_0_27_258
*1260 FILLER_0_27_28
*1261 FILLER_0_27_3
*1262 FILLER_0_27_40
*1263 FILLER_0_27_52
*1264 FILLER_0_27_73
*1265 FILLER_0_27_95
*1266 FILLER_0_28_117
*1267 FILLER_0_28_215
*1268 FILLER_0_28_238
*1269 FILLER_0_28_250
*1270 FILLER_0_28_253
*1271 FILLER_0_28_265
*1272 FILLER_0_28_269
*1273 FILLER_0_28_3
*1274 FILLER_0_28_38
*1275 FILLER_0_28_68
*1276 FILLER_0_29_100
*1277 FILLER_0_29_110
*1278 FILLER_0_29_123
*1279 FILLER_0_29_151
*1280 FILLER_0_29_159
*1281 FILLER_0_29_178
*1282 FILLER_0_29_190
*1283 FILLER_0_29_207
*1284 FILLER_0_29_211
*1285 FILLER_0_29_239
*1286 FILLER_0_29_251
*1287 FILLER_0_29_263
*1288 FILLER_0_29_269
*1289 FILLER_0_29_3
*1290 FILLER_0_29_39
*1291 FILLER_0_29_45
*1292 FILLER_0_29_52
*1293 FILLER_0_29_57
*1294 FILLER_0_29_61
*1295 FILLER_0_29_73
*1296 FILLER_0_29_79
*1297 FILLER_0_29_92
*1298 FILLER_0_2_101
*1299 FILLER_0_2_139
*1300 FILLER_0_2_15
*1301 FILLER_0_2_157
*1302 FILLER_0_2_197
*1303 FILLER_0_2_203
*1304 FILLER_0_2_220
*1305 FILLER_0_2_232
*1306 FILLER_0_2_244
*1307 FILLER_0_2_253
*1308 FILLER_0_2_265
*1309 FILLER_0_2_269
*1310 FILLER_0_2_27
*1311 FILLER_0_2_29
*1312 FILLER_0_2_3
*1313 FILLER_0_2_41
*1314 FILLER_0_2_53
*1315 FILLER_0_2_65
*1316 FILLER_0_2_73
*1317 FILLER_0_30_101
*1318 FILLER_0_30_108
*1319 FILLER_0_30_115
*1320 FILLER_0_30_141
*1321 FILLER_0_30_153
*1322 FILLER_0_30_166
*1323 FILLER_0_30_170
*1324 FILLER_0_30_183
*1325 FILLER_0_30_192
*1326 FILLER_0_30_197
*1327 FILLER_0_30_201
*1328 FILLER_0_30_213
*1329 FILLER_0_30_256
*1330 FILLER_0_30_262
*1331 FILLER_0_30_3
*1332 FILLER_0_30_38
*1333 FILLER_0_30_50
*1334 FILLER_0_30_56
*1335 FILLER_0_30_66
*1336 FILLER_0_30_74
*1337 FILLER_0_30_83
*1338 FILLER_0_30_85
*1339 FILLER_0_30_97
*1340 FILLER_0_31_108
*1341 FILLER_0_31_119
*1342 FILLER_0_31_136
*1343 FILLER_0_31_148
*1344 FILLER_0_31_166
*1345 FILLER_0_31_169
*1346 FILLER_0_31_187
*1347 FILLER_0_31_191
*1348 FILLER_0_31_222
*1349 FILLER_0_31_225
*1350 FILLER_0_31_237
*1351 FILLER_0_31_260
*1352 FILLER_0_31_266
*1353 FILLER_0_31_3
*1354 FILLER_0_31_35
*1355 FILLER_0_31_47
*1356 FILLER_0_31_55
*1357 FILLER_0_31_57
*1358 FILLER_0_31_61
*1359 FILLER_0_31_81
*1360 FILLER_0_31_9
*1361 FILLER_0_32_110
*1362 FILLER_0_32_118
*1363 FILLER_0_32_138
*1364 FILLER_0_32_15
*1365 FILLER_0_32_170
*1366 FILLER_0_32_222
*1367 FILLER_0_32_234
*1368 FILLER_0_32_246
*1369 FILLER_0_32_25
*1370 FILLER_0_32_253
*1371 FILLER_0_32_265
*1372 FILLER_0_32_269
*1373 FILLER_0_32_29
*1374 FILLER_0_32_3
*1375 FILLER_0_32_39
*1376 FILLER_0_32_51
*1377 FILLER_0_32_82
*1378 FILLER_0_32_92
*1379 FILLER_0_33_119
*1380 FILLER_0_33_147
*1381 FILLER_0_33_187
*1382 FILLER_0_33_19
*1383 FILLER_0_33_215
*1384 FILLER_0_33_219
*1385 FILLER_0_33_225
*1386 FILLER_0_33_237
*1387 FILLER_0_33_249
*1388 FILLER_0_33_257
*1389 FILLER_0_33_262
*1390 FILLER_0_33_7
*1391 FILLER_0_33_82
*1392 FILLER_0_34_109
*1393 FILLER_0_34_113
*1394 FILLER_0_34_139
*1395 FILLER_0_34_141
*1396 FILLER_0_34_183
*1397 FILLER_0_34_195
*1398 FILLER_0_34_197
*1399 FILLER_0_34_209
*1400 FILLER_0_34_217
*1401 FILLER_0_34_241
*1402 FILLER_0_34_26
*1403 FILLER_0_34_3
*1404 FILLER_0_34_45
*1405 FILLER_0_34_83
*1406 FILLER_0_34_85
*1407 FILLER_0_34_89
*1408 FILLER_0_34_9
*1409 FILLER_0_35_111
*1410 FILLER_0_35_113
*1411 FILLER_0_35_134
*1412 FILLER_0_35_146
*1413 FILLER_0_35_154
*1414 FILLER_0_35_166
*1415 FILLER_0_35_169
*1416 FILLER_0_35_181
*1417 FILLER_0_35_193
*1418 FILLER_0_35_205
*1419 FILLER_0_35_266
*1420 FILLER_0_35_3
*1421 FILLER_0_35_49
*1422 FILLER_0_35_55
*1423 FILLER_0_35_57
*1424 FILLER_0_36_108
*1425 FILLER_0_36_11
*1426 FILLER_0_36_120
*1427 FILLER_0_36_132
*1428 FILLER_0_36_144
*1429 FILLER_0_36_156
*1430 FILLER_0_36_174
*1431 FILLER_0_36_184
*1432 FILLER_0_36_188
*1433 FILLER_0_36_195