* NGSPICE file created from async_fifo.ext - technology: sky130A

* Black-box entry subcircuit for sky130_fd_sc_hd__mux2_1 abstract view
.subckt sky130_fd_sc_hd__mux2_1 A0 A1 S VGND VNB VPB VPWR X
.ends

* Black-box entry subcircuit for sky130_fd_sc_hd__tapvpwrvgnd_1 abstract view
.subckt sky130_fd_sc_hd__tapvpwrvgnd_1 VGND VPWR
.ends

* Black-box entry subcircuit for sky130_fd_sc_hd__fill_2 abstract view
.subckt sky130_fd_sc_hd__fill_2 VGND VNB VPB VPWR
.ends

* Black-box entry subcircuit for sky130_fd_sc_hd__o2111ai_4 abstract view
.subckt sky130_fd_sc_hd__o2111ai_4 A1 A2 B1 C1 D1 VGND VNB VPB VPWR Y
.ends

* Black-box entry subcircuit for sky130_fd_sc_hd__fill_1 abstract view
.subckt sky130_fd_sc_hd__fill_1 VGND VNB VPB VPWR
.ends

* Black-box entry subcircuit for sky130_ef_sc_hd__decap_12 abstract view
.subckt sky130_ef_sc_hd__decap_12 VPWR VGND VPB VNB
.ends

* Black-box entry subcircuit for sky130_fd_sc_hd__decap_3 abstract view
.subckt sky130_fd_sc_hd__decap_3 VGND VNB VPB VPWR
.ends

* Black-box entry subcircuit for sky130_fd_sc_hd__dfxtp_1 abstract view
.subckt sky130_fd_sc_hd__dfxtp_1 CLK D VGND VNB VPB VPWR Q
.ends

* Black-box entry subcircuit for sky130_fd_sc_hd__and4_1 abstract view
.subckt sky130_fd_sc_hd__and4_1 A B C D VGND VNB VPB VPWR X
.ends

* Black-box entry subcircuit for sky130_fd_sc_hd__dfxtp_2 abstract view
.subckt sky130_fd_sc_hd__dfxtp_2 CLK D VGND VNB VPB VPWR Q
.ends

* Black-box entry subcircuit for sky130_fd_sc_hd__nor2_4 abstract view
.subckt sky130_fd_sc_hd__nor2_4 A B VGND VNB VPB VPWR Y
.ends

* Black-box entry subcircuit for sky130_fd_sc_hd__a221o_1 abstract view
.subckt sky130_fd_sc_hd__a221o_1 A1 A2 B1 B2 C1 VGND VNB VPB VPWR X
.ends

* Black-box entry subcircuit for sky130_fd_sc_hd__or2b_4 abstract view
.subckt sky130_fd_sc_hd__or2b_4 A B_N VGND VNB VPB VPWR X
.ends

* Black-box entry subcircuit for sky130_fd_sc_hd__nor2_1 abstract view
.subckt sky130_fd_sc_hd__nor2_1 A B VGND VNB VPB VPWR Y
.ends

* Black-box entry subcircuit for sky130_fd_sc_hd__decap_6 abstract view
.subckt sky130_fd_sc_hd__decap_6 VGND VNB VPB VPWR
.ends

* Black-box entry subcircuit for sky130_fd_sc_hd__a31oi_1 abstract view
.subckt sky130_fd_sc_hd__a31oi_1 A1 A2 A3 B1 VGND VNB VPB VPWR Y
.ends

* Black-box entry subcircuit for sky130_fd_sc_hd__clkbuf_1 abstract view
.subckt sky130_fd_sc_hd__clkbuf_1 A VGND VNB VPB VPWR X
.ends

* Black-box entry subcircuit for sky130_fd_sc_hd__decap_4 abstract view
.subckt sky130_fd_sc_hd__decap_4 VGND VNB VPB VPWR
.ends

* Black-box entry subcircuit for sky130_fd_sc_hd__and2b_1 abstract view
.subckt sky130_fd_sc_hd__and2b_1 A_N B VGND VNB VPB VPWR X
.ends

* Black-box entry subcircuit for sky130_fd_sc_hd__buf_1 abstract view
.subckt sky130_fd_sc_hd__buf_1 A VGND VNB VPB VPWR X
.ends

* Black-box entry subcircuit for sky130_fd_sc_hd__xnor2_2 abstract view
.subckt sky130_fd_sc_hd__xnor2_2 A B VGND VNB VPB VPWR Y
.ends

* Black-box entry subcircuit for sky130_fd_sc_hd__a21oi_1 abstract view
.subckt sky130_fd_sc_hd__a21oi_1 A1 A2 B1 VGND VNB VPB VPWR Y
.ends

* Black-box entry subcircuit for sky130_fd_sc_hd__decap_8 abstract view
.subckt sky130_fd_sc_hd__decap_8 VGND VNB VPB VPWR
.ends

* Black-box entry subcircuit for sky130_fd_sc_hd__a31o_1 abstract view
.subckt sky130_fd_sc_hd__a31o_1 A1 A2 A3 B1 VGND VNB VPB VPWR X
.ends

* Black-box entry subcircuit for sky130_fd_sc_hd__o31a_1 abstract view
.subckt sky130_fd_sc_hd__o31a_1 A1 A2 A3 B1 VGND VNB VPB VPWR X
.ends

* Black-box entry subcircuit for sky130_fd_sc_hd__nand2_1 abstract view
.subckt sky130_fd_sc_hd__nand2_1 A B VGND VNB VPB VPWR Y
.ends

* Black-box entry subcircuit for sky130_fd_sc_hd__o21bai_1 abstract view
.subckt sky130_fd_sc_hd__o21bai_1 A1 A2 B1_N VGND VNB VPB VPWR Y
.ends

* Black-box entry subcircuit for sky130_fd_sc_hd__or4bb_4 abstract view
.subckt sky130_fd_sc_hd__or4bb_4 A B C_N D_N VGND VNB VPB VPWR X
.ends

* Black-box entry subcircuit for sky130_fd_sc_hd__or2b_1 abstract view
.subckt sky130_fd_sc_hd__or2b_1 A B_N VGND VNB VPB VPWR X
.ends

* Black-box entry subcircuit for sky130_fd_sc_hd__nand2b_4 abstract view
.subckt sky130_fd_sc_hd__nand2b_4 A_N B VGND VNB VPB VPWR Y
.ends

* Black-box entry subcircuit for sky130_fd_sc_hd__and3_2 abstract view
.subckt sky130_fd_sc_hd__and3_2 A B C VGND VNB VPB VPWR X
.ends

* Black-box entry subcircuit for sky130_fd_sc_hd__dfxtp_4 abstract view
.subckt sky130_fd_sc_hd__dfxtp_4 CLK D VGND VNB VPB VPWR Q
.ends

* Black-box entry subcircuit for sky130_fd_sc_hd__o211a_1 abstract view
.subckt sky130_fd_sc_hd__o211a_1 A1 A2 B1 C1 VGND VNB VPB VPWR X
.ends

* Black-box entry subcircuit for sky130_fd_sc_hd__inv_2 abstract view
.subckt sky130_fd_sc_hd__inv_2 A VGND VNB VPB VPWR Y
.ends

* Black-box entry subcircuit for sky130_fd_sc_hd__and4b_4 abstract view
.subckt sky130_fd_sc_hd__and4b_4 A_N B C D VGND VNB VPB VPWR X
.ends

* Black-box entry subcircuit for sky130_fd_sc_hd__and2_1 abstract view
.subckt sky130_fd_sc_hd__and2_1 A B VGND VNB VPB VPWR X
.ends

* Black-box entry subcircuit for sky130_fd_sc_hd__or2_4 abstract view
.subckt sky130_fd_sc_hd__or2_4 A B VGND VNB VPB VPWR X
.ends

* Black-box entry subcircuit for sky130_fd_sc_hd__clkbuf_4 abstract view
.subckt sky130_fd_sc_hd__clkbuf_4 A VGND VNB VPB VPWR X
.ends

* Black-box entry subcircuit for sky130_fd_sc_hd__buf_4 abstract view
.subckt sky130_fd_sc_hd__buf_4 A VGND VNB VPB VPWR X
.ends

* Black-box entry subcircuit for sky130_fd_sc_hd__buf_2 abstract view
.subckt sky130_fd_sc_hd__buf_2 A VGND VNB VPB VPWR X
.ends

* Black-box entry subcircuit for sky130_fd_sc_hd__o31a_2 abstract view
.subckt sky130_fd_sc_hd__o31a_2 A1 A2 A3 B1 VGND VNB VPB VPWR X
.ends

* Black-box entry subcircuit for sky130_fd_sc_hd__xnor2_1 abstract view
.subckt sky130_fd_sc_hd__xnor2_1 A B VGND VNB VPB VPWR Y
.ends

* Black-box entry subcircuit for sky130_fd_sc_hd__nor3_1 abstract view
.subckt sky130_fd_sc_hd__nor3_1 A B C VGND VNB VPB VPWR Y
.ends

* Black-box entry subcircuit for sky130_fd_sc_hd__a211oi_1 abstract view
.subckt sky130_fd_sc_hd__a211oi_1 A1 A2 B1 C1 VGND VNB VPB VPWR Y
.ends

* Black-box entry subcircuit for sky130_fd_sc_hd__o2111ai_2 abstract view
.subckt sky130_fd_sc_hd__o2111ai_2 A1 A2 B1 C1 D1 VGND VNB VPB VPWR Y
.ends

* Black-box entry subcircuit for sky130_fd_sc_hd__nand3b_4 abstract view
.subckt sky130_fd_sc_hd__nand3b_4 A_N B C VGND VNB VPB VPWR Y
.ends

* Black-box entry subcircuit for sky130_fd_sc_hd__or2_1 abstract view
.subckt sky130_fd_sc_hd__or2_1 A B VGND VNB VPB VPWR X
.ends

* Black-box entry subcircuit for sky130_fd_sc_hd__clkbuf_2 abstract view
.subckt sky130_fd_sc_hd__clkbuf_2 A VGND VNB VPB VPWR X
.ends

* Black-box entry subcircuit for sky130_fd_sc_hd__and3_1 abstract view
.subckt sky130_fd_sc_hd__and3_1 A B C VGND VNB VPB VPWR X
.ends

* Black-box entry subcircuit for sky130_fd_sc_hd__o21bai_2 abstract view
.subckt sky130_fd_sc_hd__o21bai_2 A1 A2 B1_N VGND VNB VPB VPWR Y
.ends

* Black-box entry subcircuit for sky130_fd_sc_hd__or3b_1 abstract view
.subckt sky130_fd_sc_hd__or3b_1 A B C_N VGND VNB VPB VPWR X
.ends

* Black-box entry subcircuit for sky130_fd_sc_hd__o21ai_1 abstract view
.subckt sky130_fd_sc_hd__o21ai_1 A1 A2 B1 VGND VNB VPB VPWR Y
.ends

* Black-box entry subcircuit for sky130_fd_sc_hd__buf_8 abstract view
.subckt sky130_fd_sc_hd__buf_8 A VGND VNB VPB VPWR X
.ends

* Black-box entry subcircuit for sky130_fd_sc_hd__a2111o_1 abstract view
.subckt sky130_fd_sc_hd__a2111o_1 A1 A2 B1 C1 D1 VGND VNB VPB VPWR X
.ends

* Black-box entry subcircuit for sky130_fd_sc_hd__o21ba_1 abstract view
.subckt sky130_fd_sc_hd__o21ba_1 A1 A2 B1_N VGND VNB VPB VPWR X
.ends

* Black-box entry subcircuit for sky130_fd_sc_hd__xor2_1 abstract view
.subckt sky130_fd_sc_hd__xor2_1 A B VGND VNB VPB VPWR X
.ends

* Black-box entry subcircuit for sky130_fd_sc_hd__a311oi_1 abstract view
.subckt sky130_fd_sc_hd__a311oi_1 A1 A2 A3 B1 C1 VGND VNB VPB VPWR Y
.ends

* Black-box entry subcircuit for sky130_fd_sc_hd__nand2_4 abstract view
.subckt sky130_fd_sc_hd__nand2_4 A B VGND VNB VPB VPWR Y
.ends

* Black-box entry subcircuit for sky130_fd_sc_hd__or4b_4 abstract view
.subckt sky130_fd_sc_hd__or4b_4 A B C D_N VGND VNB VPB VPWR X
.ends

* Black-box entry subcircuit for sky130_fd_sc_hd__o21a_1 abstract view
.subckt sky130_fd_sc_hd__o21a_1 A1 A2 B1 VGND VNB VPB VPWR X
.ends

* Black-box entry subcircuit for sky130_fd_sc_hd__nor3_2 abstract view
.subckt sky130_fd_sc_hd__nor3_2 A B C VGND VNB VPB VPWR Y
.ends

.subckt async_fifo VGND VPWR din[0] din[1] din[2] din[3] din[4] din[5] din[6] din[7]
+ dout[0] dout[1] dout[2] dout[3] dout[4] dout[5] dout[6] dout[7] empty full rd_clk
+ rd_en rst wr_clk wr_en
Xu_mem._0518_ u_mem.mem\[4\]\[1\] u_mem._0141_ u_mem._0157_ VGND VGND VPWR VPWR u_mem._0159_
+ sky130_fd_sc_hd__mux2_1
XTAP_177 VGND VPWR sky130_fd_sc_hd__tapvpwrvgnd_1
XTAP_188 VGND VPWR sky130_fd_sc_hd__tapvpwrvgnd_1
XTAP_199 VGND VPWR sky130_fd_sc_hd__tapvpwrvgnd_1
XFILLER_0_17_222 VGND VGND VPWR VPWR sky130_fd_sc_hd__fill_2
Xu_write._60_ u_write._23_ u_write._24_ u_write._25_ u_write._26_ u_write._27_ VGND
+ VGND VPWR VPWR u_write._28_ sky130_fd_sc_hd__o2111ai_4
XFILLER_0_32_269 VGND VGND VPWR VPWR sky130_fd_sc_hd__fill_1
XFILLER_0_23_225 VPWR VGND VPWR VGND sky130_ef_sc_hd__decap_12
XFILLER_0_23_269 VGND VGND VPWR VPWR sky130_fd_sc_hd__fill_1
XFILLER_0_3_39 VPWR VGND VPWR VGND sky130_ef_sc_hd__decap_12
XFILLER_0_14_269 VGND VGND VPWR VPWR sky130_fd_sc_hd__fill_1
XFILLER_0_38_81 VGND VGND VPWR VPWR sky130_fd_sc_hd__decap_3
Xu_mem._0998_ wr_clk u_mem._0026_ VGND VGND VPWR VPWR u_mem.mem\[8\]\[2\] sky130_fd_sc_hd__dfxtp_1
Xu_write._43_ u_mem.wr_addr\[3\] u_mem.wr_addr\[2\] u_mem.wr_addr\[1\] u_mem.wr_addr\[0\]
+ VGND VGND VPWR VPWR u_write._11_ sky130_fd_sc_hd__and4_1
Xu_read._94_ rd_clk u_read._07_ VGND VGND VPWR VPWR u_mem.rd_addr\[2\] sky130_fd_sc_hd__dfxtp_2
XFILLER_0_18_29 VPWR VGND VPWR VGND sky130_ef_sc_hd__decap_12
Xu_mem._0921_ u_mem._0137_ u_mem._0156_ VGND VGND VPWR VPWR u_mem._0459_ sky130_fd_sc_hd__nor2_4
Xu_mem._0783_ u_mem._0349_ u_mem._0352_ u_mem._0354_ u_mem._0356_ u_mem.rd_addr\[3\]
+ VGND VGND VPWR VPWR u_mem._0357_ sky130_fd_sc_hd__a221o_1
Xu_mem._0852_ u_mem.wr_addr\[1\] u_mem.wr_addr\[0\] VGND VGND VPWR VPWR u_mem._0422_
+ sky130_fd_sc_hd__or2b_4
Xu_sync_wr2rd._40_ rd_clk u_sync_wr2rd._00_ VGND VGND VPWR VPWR u_read.wr_gray_sync2\[0\]
+ sky130_fd_sc_hd__dfxtp_1
XFILLER_0_6_266 VGND VGND VPWR VPWR sky130_fd_sc_hd__fill_1
XFILLER_0_24_83 VGND VGND VPWR VPWR sky130_fd_sc_hd__fill_1
XFILLER_0_4_82 VGND VGND VPWR VPWR sky130_fd_sc_hd__fill_2
XFILLER_0_37_169 VGND VGND VPWR VPWR sky130_fd_sc_hd__decap_3
Xu_read._77_ u_read._36_ u_read._37_ VGND VGND VPWR VPWR u_read._04_ sky130_fd_sc_hd__nor2_1
XFILLER_0_29_39 VGND VGND VPWR VPWR sky130_fd_sc_hd__decap_6
XFILLER_0_45_27 VGND VGND VPWR VPWR sky130_fd_sc_hd__fill_1
XFILLER_0_0_29 VPWR VGND VPWR VGND sky130_ef_sc_hd__decap_12
Xu_mem._1051_ rd_clk u_mem._0079_ VGND VGND VPWR VPWR u_mem.dout\[7\] sky130_fd_sc_hd__dfxtp_1
XFILLER_0_3_258 VPWR VGND VPWR VGND sky130_ef_sc_hd__decap_12
XFILLER_0_10_41 VPWR VGND VPWR VGND sky130_ef_sc_hd__decap_12
XFILLER_0_10_74 VGND VGND VPWR VPWR sky130_fd_sc_hd__decap_3
XFILLER_0_10_85 VPWR VGND VPWR VGND sky130_ef_sc_hd__decap_12
Xu_mem._0904_ u_mem._0176_ u_mem._0195_ VGND VGND VPWR VPWR u_mem._0450_ sky130_fd_sc_hd__nor2_4
Xu_mem._0835_ u_mem.mem\[8\]\[7\] u_mem.mem\[9\]\[7\] u_mem._0248_ VGND VGND VPWR
+ VPWR u_mem._0406_ sky130_fd_sc_hd__mux2_1
Xu_mem._0697_ u_mem._0234_ u_mem._0257_ u_mem._0273_ u_mem._0274_ VGND VGND VPWR VPWR
+ u_mem._0072_ sky130_fd_sc_hd__a31oi_1
XFILLER_0_19_50 VGND VGND VPWR VPWR sky130_fd_sc_hd__decap_6
XFILLER_0_19_61 VGND VGND VPWR VPWR sky130_fd_sc_hd__fill_1
Xu_mem._0766_ u_mem._0258_ u_mem.mem\[12\]\[4\] VGND VGND VPWR VPWR u_mem._0340_ sky130_fd_sc_hd__nor2_1
Xu_sync_wr2rd._23_ u_sync_wr2rd._11_ VGND VGND VPWR VPWR u_sync_wr2rd._01_ sky130_fd_sc_hd__clkbuf_1
XFILLER_0_34_139 VGND VGND VPWR VPWR sky130_fd_sc_hd__fill_1
Xu_mem._0620_ u_mem._0155_ u_mem._0195_ VGND VGND VPWR VPWR u_mem._0214_ sky130_fd_sc_hd__nor2_4
Xu_mem._0551_ u_mem._0156_ u_mem._0176_ VGND VGND VPWR VPWR u_mem._0177_ sky130_fd_sc_hd__nor2_4
Xu_mem._1103_ wr_clk u_mem._0131_ VGND VGND VPWR VPWR u_mem.mem\[9\]\[3\] sky130_fd_sc_hd__dfxtp_1
Xu_mem._1034_ wr_clk u_mem._0062_ VGND VGND VPWR VPWR u_mem.mem\[6\]\[6\] sky130_fd_sc_hd__dfxtp_1
Xu_mem._0749_ u_mem.mem\[10\]\[3\] u_mem.mem\[11\]\[3\] u_mem._0252_ VGND VGND VPWR
+ VPWR u_mem._0324_ sky130_fd_sc_hd__mux2_1
Xu_mem._0818_ u_mem.mem\[6\]\[6\] u_mem.mem\[7\]\[6\] u_mem._0237_ VGND VGND VPWR
+ VPWR u_mem._0390_ sky130_fd_sc_hd__mux2_1
XFILLER_0_34_3 VGND VGND VPWR VPWR sky130_fd_sc_hd__decap_6
XFILLER_0_15_150 VGND VGND VPWR VPWR sky130_fd_sc_hd__fill_2
XFILLER_0_15_172 VGND VGND VPWR VPWR sky130_fd_sc_hd__fill_1
XFILLER_0_30_153 VGND VGND VPWR VPWR sky130_fd_sc_hd__decap_4
XFILLER_0_26_29 VGND VGND VPWR VPWR sky130_fd_sc_hd__decap_3
XFILLER_0_30_197 VGND VGND VPWR VPWR sky130_fd_sc_hd__fill_1
XTAP_304 VGND VPWR sky130_fd_sc_hd__tapvpwrvgnd_1
XFILLER_0_21_164 VGND VGND VPWR VPWR sky130_fd_sc_hd__fill_1
Xu_mem._0534_ u_mem._0136_ u_mem.mem\[12\]\[0\] u_mem._0167_ VGND VGND VPWR VPWR u_mem._0168_
+ sky130_fd_sc_hd__mux2_1
Xu_mem._0603_ u_mem._0138_ u_mem._0155_ VGND VGND VPWR VPWR u_mem._0205_ sky130_fd_sc_hd__nor2_4
Xu_sync_rd2wr._34_ net10 u_read.rd_ptr_gray\[2\] VGND VGND VPWR VPWR u_sync_rd2wr._17_
+ sky130_fd_sc_hd__and2b_1
XFILLER_0_8_158 VGND VGND VPWR VPWR sky130_fd_sc_hd__fill_2
Xu_mem._1017_ wr_clk u_mem._0045_ VGND VGND VPWR VPWR u_mem.mem\[2\]\[5\] sky130_fd_sc_hd__dfxtp_1
XFILLER_0_12_197 VGND VGND VPWR VPWR sky130_fd_sc_hd__fill_1
XFILLER_0_7_180 VGND VGND VPWR VPWR sky130_fd_sc_hd__fill_1
Xoutput20 net20 VGND VGND VPWR VPWR empty sky130_fd_sc_hd__buf_1
XFILLER_0_37_28 VPWR VGND VPWR VGND sky130_ef_sc_hd__decap_12
XTAP_134 VGND VPWR sky130_fd_sc_hd__tapvpwrvgnd_1
XTAP_123 VGND VPWR sky130_fd_sc_hd__tapvpwrvgnd_1
XTAP_112 VGND VPWR sky130_fd_sc_hd__tapvpwrvgnd_1
XTAP_101 VGND VPWR sky130_fd_sc_hd__tapvpwrvgnd_1
XTAP_145 VGND VPWR sky130_fd_sc_hd__tapvpwrvgnd_1
XTAP_156 VGND VPWR sky130_fd_sc_hd__tapvpwrvgnd_1
XTAP_167 VGND VPWR sky130_fd_sc_hd__tapvpwrvgnd_1
XTAP_178 VGND VPWR sky130_fd_sc_hd__tapvpwrvgnd_1
XTAP_189 VGND VPWR sky130_fd_sc_hd__tapvpwrvgnd_1
Xu_mem._0517_ u_mem._0158_ VGND VGND VPWR VPWR u_mem._0008_ sky130_fd_sc_hd__clkbuf_1
XFILLER_0_4_150 VGND VGND VPWR VPWR sky130_fd_sc_hd__decap_6
XFILLER_0_23_237 VPWR VGND VPWR VGND sky130_ef_sc_hd__decap_12
XFILLER_0_1_175 VGND VGND VPWR VPWR sky130_fd_sc_hd__fill_1
XFILLER_0_38_93 VGND VGND VPWR VPWR sky130_fd_sc_hd__fill_1
Xu_mem._0997_ wr_clk u_mem._0025_ VGND VGND VPWR VPWR u_mem.mem\[8\]\[1\] sky130_fd_sc_hd__dfxtp_1
Xu_write._42_ u_mem.wr_addr\[3\] u_write._09_ VGND VGND VPWR VPWR u_write._10_ sky130_fd_sc_hd__xnor2_2
Xu_read._93_ rd_clk u_read._06_ VGND VGND VPWR VPWR u_mem.rd_addr\[1\] sky130_fd_sc_hd__dfxtp_2
Xu_mem._0920_ u_mem._0458_ VGND VGND VPWR VPWR u_mem._0111_ sky130_fd_sc_hd__clkbuf_1
Xu_mem._0782_ u_mem._0251_ u_mem._0355_ u_mem._0254_ VGND VGND VPWR VPWR u_mem._0356_
+ sky130_fd_sc_hd__a21oi_1
Xu_mem._0851_ u_mem._0234_ u_mem._0410_ u_mem._0420_ u_mem._0421_ VGND VGND VPWR VPWR
+ u_mem._0079_ sky130_fd_sc_hd__a31oi_1
XFILLER_0_40_94 VGND VGND VPWR VPWR sky130_fd_sc_hd__decap_8
XFILLER_0_40_83 VGND VGND VPWR VPWR sky130_fd_sc_hd__fill_1
XFILLER_0_10_251 VGND VGND VPWR VPWR sky130_fd_sc_hd__fill_1
XFILLER_0_4_94 VPWR VGND VPWR VGND sky130_ef_sc_hd__decap_12
XFILLER_0_45_181 VPWR VGND VPWR VGND sky130_ef_sc_hd__decap_12
Xu_read._76_ u_read.rd_ptr_bin\[4\] u_read._19_ u_read._35_ net10 VGND VGND VPWR VPWR
+ u_read._37_ sky130_fd_sc_hd__a31o_1
XFILLER_0_0_19 VGND VGND VPWR VPWR sky130_fd_sc_hd__decap_8
XFILLER_0_43_129 VGND VGND VPWR VPWR sky130_fd_sc_hd__fill_2
Xu_mem._1050_ rd_clk u_mem._0078_ VGND VGND VPWR VPWR u_mem.dout\[6\] sky130_fd_sc_hd__dfxtp_1
XFILLER_0_10_53 VGND VGND VPWR VPWR sky130_fd_sc_hd__fill_2
XFILLER_0_10_64 VGND VGND VPWR VPWR sky130_fd_sc_hd__decap_4
XFILLER_0_10_97 VPWR VGND VPWR VGND sky130_ef_sc_hd__decap_12
Xu_mem._0834_ u_mem._0235_ u_mem._0403_ u_mem._0404_ u_mem.rd_addr\[2\] VGND VGND
+ VPWR VPWR u_mem._0405_ sky130_fd_sc_hd__o31a_1
Xu_mem._0903_ u_mem._0449_ VGND VGND VPWR VPWR u_mem._0103_ sky130_fd_sc_hd__clkbuf_1
Xu_mem._0696_ u_mem.dout\[0\] u_mem._0234_ VGND VGND VPWR VPWR u_mem._0274_ sky130_fd_sc_hd__nor2_1
Xu_mem._0765_ u_mem._0269_ u_mem._0338_ VGND VGND VPWR VPWR u_mem._0339_ sky130_fd_sc_hd__nand2_1
XFILLER_0_19_148 VPWR VGND VPWR VGND sky130_ef_sc_hd__decap_12
Xu_sync_wr2rd._22_ net10 u_sync_wr2rd.gray_sync1\[1\] VGND VGND VPWR VPWR u_sync_wr2rd._11_
+ sky130_fd_sc_hd__and2b_1
Xu_read._59_ u_mem.rd_addr\[1\] u_mem.rd_addr\[0\] u_mem.rd_addr\[2\] VGND VGND VPWR
+ VPWR u_read._23_ sky130_fd_sc_hd__o21bai_1
Xu_mem._0550_ u_mem.wr_addr\[2\] net21 net11 u_mem.wr_addr\[3\] VGND VGND VPWR VPWR
+ u_mem._0176_ sky130_fd_sc_hd__or4bb_4
Xu_mem._1102_ wr_clk u_mem._0130_ VGND VGND VPWR VPWR u_mem.mem\[9\]\[2\] sky130_fd_sc_hd__dfxtp_1
XFILLER_0_21_96 VGND VGND VPWR VPWR sky130_fd_sc_hd__decap_4
Xu_mem._1033_ wr_clk u_mem._0061_ VGND VGND VPWR VPWR u_mem.mem\[6\]\[5\] sky130_fd_sc_hd__dfxtp_1
XFILLER_0_24_151 VPWR VGND VPWR VGND sky130_ef_sc_hd__decap_12
Xu_mem._0817_ u_mem._0381_ u_mem._0384_ u_mem._0386_ u_mem._0388_ u_mem._0256_ VGND
+ VGND VPWR VPWR u_mem._0389_ sky130_fd_sc_hd__a221o_1
Xu_mem._0679_ u_mem._0239_ u_mem._0246_ u_mem._0250_ u_mem._0255_ u_mem._0256_ VGND
+ VGND VPWR VPWR u_mem._0257_ sky130_fd_sc_hd__a221o_1
XFILLER_0_1_51 VGND VGND VPWR VPWR sky130_fd_sc_hd__decap_4
Xu_mem._0748_ u_mem._0247_ u_mem._0322_ VGND VGND VPWR VPWR u_mem._0323_ sky130_fd_sc_hd__or2b_1
XFILLER_0_27_3 VGND VGND VPWR VPWR sky130_fd_sc_hd__decap_8
XFILLER_0_15_140 VGND VGND VPWR VPWR sky130_fd_sc_hd__decap_6
XFILLER_0_42_29 VGND VGND VPWR VPWR sky130_fd_sc_hd__decap_8
XFILLER_0_21_110 VGND VGND VPWR VPWR sky130_fd_sc_hd__fill_2
XTAP_305 VGND VPWR sky130_fd_sc_hd__tapvpwrvgnd_1
XFILLER_0_21_187 VPWR VGND VPWR VGND sky130_ef_sc_hd__decap_12
Xu_mem._0602_ u_mem._0204_ VGND VGND VPWR VPWR u_mem._0047_ sky130_fd_sc_hd__clkbuf_1
Xu_mem._0533_ u_mem._0156_ u_mem._0166_ VGND VGND VPWR VPWR u_mem._0167_ sky130_fd_sc_hd__nand2b_4
XFILLER_0_16_41 VGND VGND VPWR VPWR sky130_fd_sc_hd__fill_2
XFILLER_0_16_85 VGND VGND VPWR VPWR sky130_fd_sc_hd__fill_1
XFILLER_0_44_235 VPWR VGND VPWR VGND sky130_ef_sc_hd__decap_12
Xu_sync_rd2wr._33_ u_sync_rd2wr._16_ VGND VGND VPWR VPWR u_sync_rd2wr._06_ sky130_fd_sc_hd__clkbuf_1
XFILLER_0_32_51 VGND VGND VPWR VPWR sky130_fd_sc_hd__decap_4
XFILLER_0_12_187 VGND VGND VPWR VPWR sky130_fd_sc_hd__fill_1
Xu_mem._1016_ wr_clk u_mem._0044_ VGND VGND VPWR VPWR u_mem.mem\[2\]\[4\] sky130_fd_sc_hd__dfxtp_1
Xoutput21 net21 VGND VGND VPWR VPWR full sky130_fd_sc_hd__buf_1
XFILLER_0_5_107 VGND VGND VPWR VPWR sky130_fd_sc_hd__decap_4
XFILLER_0_26_213 VGND VGND VPWR VPWR sky130_fd_sc_hd__decap_6
XFILLER_0_5_129 VGND VGND VPWR VPWR sky130_fd_sc_hd__fill_1
XTAP_135 VGND VPWR sky130_fd_sc_hd__tapvpwrvgnd_1
XTAP_124 VGND VPWR sky130_fd_sc_hd__tapvpwrvgnd_1
XTAP_113 VGND VPWR sky130_fd_sc_hd__tapvpwrvgnd_1
XTAP_102 VGND VPWR sky130_fd_sc_hd__tapvpwrvgnd_1
XTAP_146 VGND VPWR sky130_fd_sc_hd__tapvpwrvgnd_1
XTAP_157 VGND VPWR sky130_fd_sc_hd__tapvpwrvgnd_1
XTAP_168 VGND VPWR sky130_fd_sc_hd__tapvpwrvgnd_1
XTAP_179 VGND VPWR sky130_fd_sc_hd__tapvpwrvgnd_1
XFILLER_0_27_40 VPWR VGND VPWR VGND sky130_ef_sc_hd__decap_12
Xu_mem._0516_ u_mem.mem\[4\]\[0\] u_mem._0136_ u_mem._0157_ VGND VGND VPWR VPWR u_mem._0158_
+ sky130_fd_sc_hd__mux2_1
XFILLER_0_27_73 VGND VGND VPWR VPWR sky130_fd_sc_hd__decap_6
XFILLER_0_27_95 VGND VGND VPWR VPWR sky130_fd_sc_hd__fill_2
XFILLER_0_23_249 VPWR VGND VPWR VGND sky130_ef_sc_hd__decap_12
XFILLER_0_31_260 VGND VGND VPWR VPWR sky130_fd_sc_hd__decap_6
Xu_mem._0996_ wr_clk u_mem._0024_ VGND VGND VPWR VPWR u_mem.mem\[8\]\[0\] sky130_fd_sc_hd__dfxtp_1
XFILLER_0_1_110 VGND VGND VPWR VPWR sky130_fd_sc_hd__fill_2
Xu_write._41_ u_mem.wr_addr\[2\] u_mem.wr_addr\[1\] u_mem.wr_addr\[0\] VGND VGND VPWR
+ VPWR u_write._09_ sky130_fd_sc_hd__and3_2
Xu_read._92_ rd_clk u_read._05_ VGND VGND VPWR VPWR u_mem.rd_addr\[0\] sky130_fd_sc_hd__dfxtp_4
Xu_mem._0850_ u_mem.dout\[7\] u_mem._0233_ VGND VGND VPWR VPWR u_mem._0421_ sky130_fd_sc_hd__nor2_1
Xu_mem._0781_ u_mem.mem\[2\]\[4\] u_mem.mem\[3\]\[4\] u_mem._0270_ VGND VGND VPWR
+ VPWR u_mem._0355_ sky130_fd_sc_hd__mux2_1
XFILLER_0_6_235 VGND VGND VPWR VPWR sky130_fd_sc_hd__fill_1
Xu_mem._0979_ wr_clk u_mem._0007_ VGND VGND VPWR VPWR u_mem.mem\[3\]\[7\] sky130_fd_sc_hd__dfxtp_1
XFILLER_0_45_193 VGND VGND VPWR VPWR sky130_fd_sc_hd__decap_3
Xu_read._75_ u_read._20_ u_read._35_ u_read.rd_ptr_bin\[4\] VGND VGND VPWR VPWR u_read._36_
+ sky130_fd_sc_hd__a21oi_1
XFILLER_0_45_29 VPWR VGND VPWR VGND sky130_ef_sc_hd__decap_12
Xu_mem._0902_ u_mem._0153_ u_mem.mem\[15\]\[7\] u_mem._0441_ VGND VGND VPWR VPWR u_mem._0449_
+ sky130_fd_sc_hd__mux2_1
Xu_mem._0764_ u_mem.mem\[14\]\[4\] u_mem.mem\[15\]\[4\] u_mem._0237_ VGND VGND VPWR
+ VPWR u_mem._0338_ sky130_fd_sc_hd__mux2_1
Xu_mem._0833_ u_mem.mem\[13\]\[7\] u_mem._0266_ VGND VGND VPWR VPWR u_mem._0404_ sky130_fd_sc_hd__and2b_1
Xu_mem._0695_ u_mem._0260_ u_mem._0264_ u_mem._0268_ u_mem._0272_ u_mem.rd_addr\[3\]
+ VGND VGND VPWR VPWR u_mem._0273_ sky130_fd_sc_hd__a221o_1
XFILLER_0_19_138 VGND VGND VPWR VPWR sky130_fd_sc_hd__fill_1
Xu_sync_wr2rd._21_ u_sync_wr2rd._10_ VGND VGND VPWR VPWR u_sync_wr2rd._00_ sky130_fd_sc_hd__clkbuf_1
XFILLER_0_18_171 VGND VGND VPWR VPWR sky130_fd_sc_hd__fill_2
XFILLER_0_25_119 VGND VGND VPWR VPWR sky130_fd_sc_hd__fill_1
Xu_read._58_ u_read.rd_ptr_gray\[0\] u_read._20_ u_read._21_ u_read._22_ VGND VGND
+ VPWR VPWR u_read._00_ sky130_fd_sc_hd__o211a_1
Xu_mem._1101_ wr_clk u_mem._0129_ VGND VGND VPWR VPWR u_mem.mem\[9\]\[1\] sky130_fd_sc_hd__dfxtp_1
Xu_mem._1032_ wr_clk u_mem._0060_ VGND VGND VPWR VPWR u_mem.mem\[6\]\[4\] sky130_fd_sc_hd__dfxtp_1
XFILLER_0_21_53 VGND VGND VPWR VPWR sky130_fd_sc_hd__decap_3
Xu_mem._0747_ u_mem.mem\[8\]\[3\] u_mem.mem\[9\]\[3\] u_mem._0248_ VGND VGND VPWR
+ VPWR u_mem._0322_ sky130_fd_sc_hd__mux2_1
Xu_mem._0816_ u_mem._0265_ u_mem._0387_ u_mem._0263_ VGND VGND VPWR VPWR u_mem._0388_
+ sky130_fd_sc_hd__a21oi_1
Xu_mem._0678_ u_mem.rd_addr\[3\] VGND VGND VPWR VPWR u_mem._0256_ sky130_fd_sc_hd__inv_2
XFILLER_0_30_166 VGND VGND VPWR VPWR sky130_fd_sc_hd__fill_1
XFILLER_0_6_19 VGND VGND VPWR VPWR sky130_fd_sc_hd__decap_8
XFILLER_0_21_100 VGND VGND VPWR VPWR sky130_fd_sc_hd__fill_1
XTAP_306 VGND VPWR sky130_fd_sc_hd__tapvpwrvgnd_1
XFILLER_0_21_199 VGND VGND VPWR VPWR sky130_fd_sc_hd__fill_1
Xu_mem._0601_ u_mem.mem\[2\]\[7\] u_mem._0153_ u_mem._0196_ VGND VGND VPWR VPWR u_mem._0204_
+ sky130_fd_sc_hd__mux2_1
Xu_mem._0532_ net21 net11 u_mem.wr_addr\[3\] u_mem.wr_addr\[2\] VGND VGND VPWR VPWR
+ u_mem._0166_ sky130_fd_sc_hd__and4b_4
XFILLER_0_29_211 VGND VGND VPWR VPWR sky130_fd_sc_hd__fill_1
XFILLER_0_44_269 VGND VGND VPWR VPWR sky130_fd_sc_hd__fill_1
XFILLER_0_44_247 VGND VGND VPWR VPWR sky130_fd_sc_hd__decap_4
Xu_sync_rd2wr._32_ net10 u_read.rd_ptr_gray\[1\] VGND VGND VPWR VPWR u_sync_rd2wr._16_
+ sky130_fd_sc_hd__and2b_1
XFILLER_0_8_127 VGND VGND VPWR VPWR sky130_fd_sc_hd__fill_2
Xu_mem._1015_ wr_clk u_mem._0043_ VGND VGND VPWR VPWR u_mem.mem\[2\]\[3\] sky130_fd_sc_hd__dfxtp_1
XFILLER_0_12_166 VGND VGND VPWR VPWR sky130_fd_sc_hd__decap_6
XFILLER_0_9_3 VGND VGND VPWR VPWR sky130_fd_sc_hd__fill_1
XTAP_114 VGND VPWR sky130_fd_sc_hd__tapvpwrvgnd_1
XTAP_103 VGND VPWR sky130_fd_sc_hd__tapvpwrvgnd_1
XTAP_136 VGND VPWR sky130_fd_sc_hd__tapvpwrvgnd_1
XTAP_125 VGND VPWR sky130_fd_sc_hd__tapvpwrvgnd_1
XTAP_147 VGND VPWR sky130_fd_sc_hd__tapvpwrvgnd_1
XTAP_158 VGND VPWR sky130_fd_sc_hd__tapvpwrvgnd_1
XTAP_169 VGND VPWR sky130_fd_sc_hd__tapvpwrvgnd_1
XFILLER_0_27_52 VGND VGND VPWR VPWR sky130_fd_sc_hd__fill_1
Xu_mem._0515_ u_mem._0155_ u_mem._0156_ VGND VGND VPWR VPWR u_mem._0157_ sky130_fd_sc_hd__nor2_4
XFILLER_0_17_225 VPWR VGND VPWR VGND sky130_ef_sc_hd__decap_12
XFILLER_0_17_269 VGND VGND VPWR VPWR sky130_fd_sc_hd__fill_1
XFILLER_0_13_54 VGND VGND VPWR VPWR sky130_fd_sc_hd__fill_2
XFILLER_0_22_250 VGND VGND VPWR VPWR sky130_fd_sc_hd__fill_2
Xu_mem._0995_ wr_clk u_mem._0023_ VGND VGND VPWR VPWR u_mem.mem\[12\]\[7\] sky130_fd_sc_hd__dfxtp_1
XFILLER_0_38_73 VGND VGND VPWR VPWR sky130_fd_sc_hd__decap_8
XFILLER_0_9_211 VGND VGND VPWR VPWR sky130_fd_sc_hd__decap_8
Xu_read._91_ rd_clk u_read._04_ VGND VGND VPWR VPWR u_read.rd_ptr_bin\[4\] sky130_fd_sc_hd__dfxtp_2
XFILLER_0_0_7 VPWR VGND VPWR VGND sky130_ef_sc_hd__decap_12
Xu_mem._0780_ u_mem._0265_ u_mem._0353_ VGND VGND VPWR VPWR u_mem._0354_ sky130_fd_sc_hd__or2b_1
XFILLER_0_40_85 VGND VGND VPWR VPWR sky130_fd_sc_hd__fill_1
XFILLER_0_4_41 VPWR VGND VPWR VGND sky130_ef_sc_hd__decap_12
XFILLER_0_10_253 VPWR VGND VPWR VGND sky130_ef_sc_hd__decap_12
Xu_mem._0978_ wr_clk u_mem._0006_ VGND VGND VPWR VPWR u_mem.mem\[3\]\[6\] sky130_fd_sc_hd__dfxtp_1
Xu_read._74_ u_mem.rd_addr\[3\] u_read._30_ VGND VGND VPWR VPWR u_read._35_ sky130_fd_sc_hd__and2_1
XFILLER_0_45_19 VGND VGND VPWR VPWR sky130_fd_sc_hd__decap_8
XFILLER_0_28_117 VGND VGND VPWR VPWR sky130_fd_sc_hd__decap_4
XFILLER_0_10_11 VGND VGND VPWR VPWR sky130_fd_sc_hd__fill_2
XFILLER_0_10_22 VGND VGND VPWR VPWR sky130_fd_sc_hd__decap_6
Xu_mem._0901_ u_mem._0448_ VGND VGND VPWR VPWR u_mem._0102_ sky130_fd_sc_hd__clkbuf_1
Xu_mem._0763_ u_mem._0234_ u_mem._0326_ u_mem._0336_ u_mem._0337_ VGND VGND VPWR VPWR
+ u_mem._0075_ sky130_fd_sc_hd__a31oi_1
Xu_mem._0832_ u_mem._0258_ u_mem.mem\[12\]\[7\] VGND VGND VPWR VPWR u_mem._0403_ sky130_fd_sc_hd__nor2_1
Xu_mem._0694_ u_mem._0269_ u_mem._0271_ u_mem._0254_ VGND VGND VPWR VPWR u_mem._0272_
+ sky130_fd_sc_hd__a21oi_1
Xu_sync_wr2rd._20_ net10 u_sync_wr2rd.gray_sync1\[0\] VGND VGND VPWR VPWR u_sync_wr2rd._10_
+ sky130_fd_sc_hd__and2b_1
XFILLER_0_27_150 VGND VGND VPWR VPWR sky130_fd_sc_hd__decap_8
XFILLER_0_34_109 VGND VGND VPWR VPWR sky130_fd_sc_hd__decap_4
XFILLER_0_0_209 VPWR VGND VPWR VGND sky130_ef_sc_hd__decap_12
Xu_read._57_ net10 VGND VGND VPWR VPWR u_read._22_ sky130_fd_sc_hd__inv_2
Xu_mem._1100_ wr_clk u_mem._0128_ VGND VGND VPWR VPWR u_mem.mem\[9\]\[0\] sky130_fd_sc_hd__dfxtp_1
Xu_mem._1031_ wr_clk u_mem._0059_ VGND VGND VPWR VPWR u_mem.mem\[6\]\[3\] sky130_fd_sc_hd__dfxtp_1
XFILLER_0_21_65 VGND VGND VPWR VPWR sky130_fd_sc_hd__fill_1
XFILLER_0_24_197 VGND VGND VPWR VPWR sky130_fd_sc_hd__decap_4
Xu_mem._0677_ u_mem._0251_ u_mem._0253_ u_mem._0254_ VGND VGND VPWR VPWR u_mem._0255_
+ sky130_fd_sc_hd__a21oi_1
Xu_mem._0746_ u_mem._0240_ u_mem._0319_ u_mem._0320_ u_mem._0245_ VGND VGND VPWR VPWR
+ u_mem._0321_ sky130_fd_sc_hd__o31a_1
Xu_mem._0815_ u_mem.mem\[10\]\[6\] u_mem.mem\[11\]\[6\] u_mem._0252_ VGND VGND VPWR
+ VPWR u_mem._0387_ sky130_fd_sc_hd__mux2_1
XFILLER_0_1_75 VGND VGND VPWR VPWR sky130_fd_sc_hd__fill_1
XFILLER_0_30_101 VGND VGND VPWR VPWR sky130_fd_sc_hd__fill_1
XFILLER_0_38_201 VGND VGND VPWR VPWR sky130_fd_sc_hd__fill_1
XTAP_307 VGND VPWR sky130_fd_sc_hd__tapvpwrvgnd_1
Xu_mem._0531_ u_mem._0165_ VGND VGND VPWR VPWR u_mem._0015_ sky130_fd_sc_hd__clkbuf_1
Xu_mem._0600_ u_mem._0203_ VGND VGND VPWR VPWR u_mem._0046_ sky130_fd_sc_hd__clkbuf_1
Xu_sync_rd2wr._31_ u_sync_rd2wr._15_ VGND VGND VPWR VPWR u_sync_rd2wr._05_ sky130_fd_sc_hd__clkbuf_1
Xu_mem._1014_ wr_clk u_mem._0042_ VGND VGND VPWR VPWR u_mem.mem\[2\]\[2\] sky130_fd_sc_hd__dfxtp_1
XFILLER_0_12_156 VGND VGND VPWR VPWR sky130_fd_sc_hd__fill_2
Xu_mem._0729_ u_mem._0297_ u_mem._0300_ u_mem._0302_ u_mem._0304_ u_mem._0256_ VGND
+ VGND VPWR VPWR u_mem._0305_ sky130_fd_sc_hd__a221o_1
XFILLER_0_32_3 VPWR VGND VPWR VGND sky130_ef_sc_hd__decap_12
XFILLER_0_7_172 VGND VGND VPWR VPWR sky130_fd_sc_hd__fill_1
Xoutput12 net12 VGND VGND VPWR VPWR dout[0] sky130_fd_sc_hd__clkbuf_1
XFILLER_0_41_207 VPWR VGND VPWR VGND sky130_ef_sc_hd__decap_12
XTAP_126 VGND VPWR sky130_fd_sc_hd__tapvpwrvgnd_1
XTAP_115 VGND VPWR sky130_fd_sc_hd__tapvpwrvgnd_1
XTAP_104 VGND VPWR sky130_fd_sc_hd__tapvpwrvgnd_1
XTAP_137 VGND VPWR sky130_fd_sc_hd__tapvpwrvgnd_1
XTAP_148 VGND VPWR sky130_fd_sc_hd__tapvpwrvgnd_1
XTAP_159 VGND VPWR sky130_fd_sc_hd__tapvpwrvgnd_1
Xu_mem._0514_ u_mem.wr_addr\[0\] u_mem.wr_addr\[1\] VGND VGND VPWR VPWR u_mem._0156_
+ sky130_fd_sc_hd__or2_4
XFILLER_0_43_74 VGND VGND VPWR VPWR sky130_fd_sc_hd__fill_1
XFILLER_0_17_237 VPWR VGND VPWR VGND sky130_ef_sc_hd__decap_12
XFILLER_0_4_175 VGND VGND VPWR VPWR sky130_fd_sc_hd__decap_4
XFILLER_0_38_85 VGND VGND VPWR VPWR sky130_fd_sc_hd__fill_1
XFILLER_0_1_167 VGND VGND VPWR VPWR sky130_fd_sc_hd__fill_1
Xu_mem._0994_ wr_clk u_mem._0022_ VGND VGND VPWR VPWR u_mem.mem\[12\]\[6\] sky130_fd_sc_hd__dfxtp_1
XFILLER_0_9_234 VPWR VGND VPWR VGND sky130_ef_sc_hd__decap_12
Xu_read._90_ rd_clk u_read._03_ VGND VGND VPWR VPWR u_read.rd_ptr_gray\[3\] sky130_fd_sc_hd__dfxtp_1
XFILLER_0_24_76 VGND VGND VPWR VPWR sky130_fd_sc_hd__decap_3
XFILLER_0_4_53 VPWR VGND VPWR VGND sky130_ef_sc_hd__decap_12
XFILLER_0_10_265 VGND VGND VPWR VPWR sky130_fd_sc_hd__decap_4
Xu_mem._0977_ wr_clk u_mem._0005_ VGND VGND VPWR VPWR u_mem.mem\[3\]\[5\] sky130_fd_sc_hd__dfxtp_1
XFILLER_0_37_118 VGND VGND VPWR VPWR sky130_fd_sc_hd__decap_6
Xu_read._73_ u_read._34_ VGND VGND VPWR VPWR u_read._03_ sky130_fd_sc_hd__clkbuf_1
XFILLER_0_36_195 VGND VGND VPWR VPWR sky130_fd_sc_hd__fill_1
XFILLER_0_36_184 VGND VGND VPWR VPWR sky130_fd_sc_hd__decap_4
Xu_mem._0900_ u_mem._0151_ u_mem.mem\[15\]\[6\] u_mem._0441_ VGND VGND VPWR VPWR u_mem._0448_
+ sky130_fd_sc_hd__mux2_1
Xu_mem._0693_ u_mem.mem\[2\]\[0\] u_mem.mem\[3\]\[0\] u_mem._0270_ VGND VGND VPWR
+ VPWR u_mem._0271_ sky130_fd_sc_hd__mux2_1
Xu_mem._0762_ u_mem.dout\[3\] u_mem._0233_ VGND VGND VPWR VPWR u_mem._0337_ sky130_fd_sc_hd__nor2_1
Xu_mem._0831_ u_mem._0269_ u_mem._0401_ VGND VGND VPWR VPWR u_mem._0402_ sky130_fd_sc_hd__nand2_1
XFILLER_0_27_184 VGND VGND VPWR VPWR sky130_fd_sc_hd__fill_1
Xu_read._56_ u_mem.rd_addr\[1\] u_read._20_ VGND VGND VPWR VPWR u_read._21_ sky130_fd_sc_hd__nand2_1